/batch
/config,noeldb,1     ! force off writing results to database
*get,_wallstrt,active,,time,wall
! ANSYS input file written by Workbench version 2022 R1
! File used for geometry attach: C:\Users\Wildf\Workplace\NTU-BIME_DoME\ANSYS\Belt-Sim_files\dp0\SYS\DM\SYS.scdoc
/title,Belt-Sim--Transient (A5)
! ****** Begin Custom Load Command Snippet ******
/COM, ACT Extensions:
/COM,     LSDYNA, 2021.1
/COM,     5f463412-bd3e-484b-87e7-cbc0a665e474, wbex
/COM,
! ****** End   Custom Load Command Snippet ******
*DIM,_wb_ProjectScratch_dir,string,248
_wb_ProjectScratch_dir(1) = 'C:\Users\Wildf\Workplace\NTU-BIME_DoME\ANSYS\_ProjectScratch\Scr03C6\'
*DIM,_wb_SolverFiles_dir,string,248
_wb_SolverFiles_dir(1) = 'C:\Users\Wildf\Workplace\NTU-BIME_DoME\ANSYS\Belt-Sim_files\dp0\SYS\MECH\'
*DIM,_wb_userfiles_dir,string,248
_wb_userfiles_dir(1) = 'C:\Users\Wildf\Workplace\NTU-BIME_DoME\ANSYS\Belt-Sim_files\user_files\'
/com,--- Data in consistent MKS units. See Solving Units in the help system for more information.
/units,MKS
/nopr
/wb,file,start              !  signify a WB generated input file
/prep7
! Turn off shape checking because checks already performed inside WB mesher.
! See help system for more information.
SHPP,OFF,,NOWARN
/nolist
etcon,set             ! allow ANSYS to choose best KEYOP's for 180x elements, resets any applicable keyopt to MAPDL defaults
/com,*********** Nodes for the whole assembly ***********
nblock,3,,2193
(1i9,3e20.9e3)
        1     1.964908462E-01     5.659272357E-02     7.595561359E-03
        2     2.528199704E-01     1.122723128E-02     6.035898385E-03
        3     2.493314547E-01     2.196377871E-02     6.035898385E-03
        4     2.436869177E-01     3.174040361E-02     6.035898385E-03
        5     2.361330528E-01     4.012982056E-02     6.035898385E-03
        6     2.270000000E-01     4.676537180E-02     6.035898385E-03
        7     2.166869177E-01     5.135705188E-02     6.035898385E-03
        8     2.056445370E-01     5.370418235E-02     6.035898385E-03
        9     1.943554630E-01     5.370418235E-02     6.035898385E-03
       10     1.833130823E-01     5.135705188E-02     6.035898385E-03
       11     1.730000000E-01     4.676537181E-02     6.035898385E-03
       12     1.638669473E-01     4.012982058E-02     6.035898385E-03
       13     1.563130823E-01     3.174040363E-02     6.035898385E-03
       14     1.506685453E-01     2.196377873E-02     6.035898385E-03
       15     1.471800296E-01     1.122723131E-02     6.035898385E-03
       16     2.559483338E-01     2.167449997E-02     9.500000000E-03
       17     2.510130281E-01     3.158592978E-02     9.500000000E-03
       18     2.443405350E-01     4.042173862E-02     9.500000000E-03
       19     2.361580782E-01     4.788103364E-02     9.500000000E-03
       20     2.267443013E-01     5.370979749E-02     9.500000000E-03
! ... 1975 like lines cut
/com,*********** Nodes for all Remote Points ***********
nblock,3
(1i9,3e20.9e3)
     1995     2.000000000E-01     4.336808690E-19     7.331938875E-14
     1996     2.000000000E-01     4.336808690E-19     7.331938875E-14
     1997     4.402836764E-20     3.495107005E-18    -1.182387521E-14
     1998     4.402836764E-20     3.495107005E-18    -1.182387521E-14
     1999     0.000000000E+00     0.000000000E+00     0.000000000E+00
-1
/wb,elem,start            !  set before creation of elements
/com,*********** Elements for Body 1 "Pulley_P120\Solid1" ***********
/com,*********** Send Body as a Rigid Body ***********
et,1,21
keyo,1,2,1             ! Moments of inertia in nodal coordinates
keyo,1,3,0         ! 3D Mass With Rotary Intertia
r,1,1.0262730767519,1.0262730767519,1.0262730767519,1.20551491373158e-003,1.20547771753073e-003,2.30631832827657e-003
local,11,0,0.200000000280307,-6.03936528434677e-007,-9.96652773431598e-009,32.3169108258514,8.8405070387179e-004,1.75203568111258e-005
nrot,407
csys,0
mat,1
real,1
type,1
en,1189,407
/com,*********** Elements for Body 2 "Pulley_P80\Solid1" ***********
/com,*********** Send Body as a Rigid Body ***********
et,2,21
keyo,2,2,1             ! Moments of inertia in nodal coordinates
keyo,2,3,0         ! 3D Mass With Rotary Intertia
r,2,0.317775909165159,0.317775909165159,0.317775909165159,1.72855876831804e-004,1.72852820110519e-004,3.12550627903617e-004
local,11,0,2.24148201441379e-012,-3.99012329838785e-007,2.24696727039721e-015,9.98793659433683e-005,1.66791163979295e-011,9.35650599422913e-006
nrot,771
csys,0
mat,2
real,2
type,2
en,1190,771
/com,*********** Elements for Body 3 "Belt1-2\Solid1" ***********
et,3,187
eblock,19,solid,,463
(19i9)
        3        3        3        3        0        0        0        0       10        0        1      957     1011     1004     1003     1858     1967     1856     1855
     1965     1963
        3        3        3        3        0        0        0        0       10        0        2      957     1011     1003     1010     1858     1965     1855     1857
     1978     1964
        3        3        3        3        0        0        0        0       10        0        3      957     1011      958     1004     1858     1862     1854     1856
     1967     1860
        3        3        3        3        0        0        0        0       10        0        4      956     1010      957     1003     1853     1857     1849     1851
     1964     1855
        3        3        3        3        0        0        0        0       10        0        5      942     1011      957     1010     1789     1858     1787     1788
     1978     1857
        3        3        3        3        0        0        0        0       10        0        6      958     1004     1011     1012     1860     1967     1862     1863
     1968     1979
        3        3        3        3        0        0        0        0       10        0        7      943      957     1011      958     1793     1858     1795     1794
     1854     1862
        3        3        3        3        0        0        0        0       10        0        8      956     1010     1003     1002     1853     1964     1851     1850
     1962     1959
        3        3        3        3        0        0        0        0       10        0        9      942     1010      957      956     1788     1857     1787     1786
     1853     1849
        3        3        3        3        0        0        0        0       10        0       10      942      950     1011     1010     1785     1826     1789     1788
     1825     1978
! ... 907 like lines cut
!Material Id = {F3FCD4D2-7969-4A33-93BB-4E2F9D15F423}
/wb,elem,end               !  done creating elements
/com,*********** Send User Defined Coordinate System(s) ***********
local,12,0,0.2,4.33680868994202e-019,7.33193887547667e-014,0.,0.,0.
local,13,0,4.40283676414573e-020,3.49510700489946e-018,-1.18238752122579e-014,0.,1.08904642401695e-015,-1.86862186645665e-015
csys,0
toffst,273.15,  ! Temperature offset from absolute zero
/com,*********** Set Reference Temperature ***********
tref,22.
/wb,mat,start              !  starting to send materials
/com,*********** Send Materials ***********
Temperature = 'TEMP' ! Temperature
MP,DENS,1,7850,	! kg m^-3
MP,ALPX,1,1.2e-05,	! C^-1
MP,C,1,434,	! J kg^-1 C^-1
MP,KXX,1,60.5,	! W m^-1 C^-1
MP,RSVX,1,1.7e-07,	! kg m^3 A^-2 s^-3
MP,EX,1,200000000000,	! Pa
MP,NUXY,1,0.3,
MP,MURX,1,10000,
MP,UVID,1,f2a2edda-df9f-42c0-9743-86143b373c97
MP,UMID,1,59002a79-71c2-428e-906b-55d7dbee100e

Temperature = 'TEMP' ! Temperature
MP,DENS,2,7850,	! kg m^-3
MP,ALPX,2,1.2e-05,	! C^-1
MP,C,2,434,	! J kg^-1 C^-1
MP,KXX,2,60.5,	! W m^-1 C^-1
MP,RSVX,2,1.7e-07,	! kg m^3 A^-2 s^-3
MP,EX,2,200000000000,	! Pa
MP,NUXY,2,0.3,
MP,MURX,2,10000,
MP,UVID,2,f2a2edda-df9f-42c0-9743-86143b373c97
MP,UMID,2,59002a79-71c2-428e-906b-55d7dbee100e

Temperature = 'TEMP' ! Temperature
MP,DENS,3,7850,	! kg m^-3
MP,ALPX,3,1.2e-05,	! C^-1
MP,C,3,434,	! J kg^-1 C^-1
MP,KXX,3,60.5,	! W m^-1 C^-1
MP,RSVX,3,1.7e-07,	! kg m^3 A^-2 s^-3
MP,EX,3,200000000000,	! Pa
MP,NUXY,3,0.3,
MP,MURX,3,10000,
MP,UVID,3,f2a2edda-df9f-42c0-9743-86143b373c97
MP,UMID,3,59002a79-71c2-428e-906b-55d7dbee100e

/wb,mat,end                !  done sending materials
!************************* Model Summary ********************
!Pulley_P120\Solid1,	Structural Steel,	matid,	1
!Pulley_P80\Solid1,	Structural Steel,	matid,	2
!Belt1-2\Solid1,	Structural Steel,	matid,	3
!************************* End Model Summary ********************
! get the diagonal of the bounding box. Needed later for other things
*get,_xmin,node,,mnloc,x
*get,_ymin,node,,mnloc,y
*get,_zmin,node,,mnloc,z
*get,_xmax,node,,mxloc,x
*get,_ymax,node,,mxloc,y
*get,_zmax,node,,mxloc,z
_ASMDIAG=(_xmax-_xmin)*(_xmax-_xmin)+(_ymax-_ymin)*(_ymax-_ymin)+(_zmax-_zmin)*(_zmax-_zmin)
_ASMDIAG=SQRT(_ASMDIAG)
/wb,contact,start          !  starting to send contact
/com,*********** Create Contact "Frictional - Belt1-2\Solid1 To Pulley_P120\Solid1" ***********
! ********* Create Contact to Connect To Rigid Body Mass Node *********** 
*set,tid,4
*set,cid,4
et,tid,170
keyo,tid,2,1           ! Set MPC target element and not fix pilot
keyo,tid,4,0           ! Create CE's for all DOFs
type,tid
mat ,cid
real,cid
tshape,pilo
en,1198,407
tshape
! ********* End of Create Contact to Connect To Rigid Body Mass Node *********** 
! ******--- Create Insulation Layer on Rigid Body for Surface BC's ---******** 
eblock,10,,,116
(15i9)
     1199        4        4        4        0      110      109       86       86      357      331       86      332
     1200        4        4        4        0       75       74      121      121      286      288      121      294
     1201        4        4        4        0      113      112       84       83      364      324      318      321
     1202        4        4        4        0       83       82      114      113      315      317      366      321
     1203        4        4        4        0      111       85       84      112      328      322      324      362
     1204        4        4        4        0      110       86       85      111      332      325      328      360
     1205        4        4        4        0      114       82       81      115      317      312      314      369
     1206        4        4        4        0      115       81       80      116      314      308      311      371
     1207        4        4        4        0       80       79      117      116      305      307      373      311
     1208        4        4        4        0       79       78      118      117      301      304      375      307
     1209        4        4        4        0       78       77      119      118      298      300      377      304
     1210        4        4        4        0       76      120      119       77      297      379      300      295
     1211        4        4        4        0       75      121      120       76      294      381      297      290
     1212        4        4        4        0      109      145       87       86      359      334      329      331
     1213        4        4        4        0       74      144      122      121      289      386      383      288
     1214        4        4        4        0       74       33      142      144      215      216      405      289
     1215        4        4        4        0      144      142       68      122      405      278      277      386
     1216        4        4        4        0      145      143       30       87      406      211      210      334
     1217        4        4        4        0      109       71      143      145      282      283      406      359
     1218        4        4        4        0      139       14       13       37      190      185      187      227
! ... 97 like lines cut
! ******--- End Create Insulation Layer on Rigid Body for Surface BC's ---******** 
/com,            Real Constant Set For Above Contact Is 6 & 5 
*set,tid,6
*set,cid,5
r,tid
r,cid
et,tid,170
et,cid,174
eblock,10,,,390
(15i9)
     1315        5        5        5        0      820      862      863      863     1314     1471      863     1315
     1316        5        5        5        0      828      870      871      871     1338     1479      871     1339
     1317        5        5        5        0      828      871      829      829     1339     1341      829     1337
     1318        5        5        5        0      829      871      830      830     1341     1343      830     1340
     1319        5        5        5        0      826      869      827      827     1333     1335      827     1331
     1320        5        5        5        0      825      867      868      868     1329     1476      868     1330
     1321        5        5        5        0      826      868      869      869     1332     1477      869     1333
     1322        5        5        5        0      827      869      870      870     1335     1478      870     1336
     1323        5        5        5        0      871      872      830      830     1480     1344      830     1343
     1324        5        5        5        0      872      873      831      831     1481     1346      831     1345
     1325        5        5        5        0      830      872      831      831     1344     1345      831     1342
     1326        5        5        5        0      873      819      831      831     1309     1306      831     1346
     1327        5        5        5        0      861      819      873      873     1308     1309      873     1469
     1328        5        5        5        0      827      870      828      828     1336     1338      828     1334
     1329        5        5        5        0      825      868      826      826     1330     1332      826     1328
     1330        5        5        5        0      824      867      825      825     1327     1329      825     1325
     1331        5        5        5        0      824      866      867      867     1326     1475      867     1327
     1332        5        5        5        0      823      866      824      824     1324     1326      824     1322
     1333        5        5        5        0      823      865      866      866     1323     1474      866     1324
     1334        5        5        5        0      822      865      823      823     1321     1323      823     1319
! ... 371 like lines cut
eblock,10,,,116
(15i9)
     1705        6        5        6        0      110      109       86       86      357      331       86      332
     1706        6        5        6        0       75       74      121      121      286      288      121      294
     1707        6        5        6        0      113      112       84       83      364      324      318      321
     1708        6        5        6        0       83       82      114      113      315      317      366      321
     1709        6        5        6        0      111       85       84      112      328      322      324      362
     1710        6        5        6        0      110       86       85      111      332      325      328      360
     1711        6        5        6        0      114       82       81      115      317      312      314      369
     1712        6        5        6        0      115       81       80      116      314      308      311      371
     1713        6        5        6        0       80       79      117      116      305      307      373      311
     1714        6        5        6        0       79       78      118      117      301      304      375      307
     1715        6        5        6        0       78       77      119      118      298      300      377      304
     1716        6        5        6        0       76      120      119       77      297      379      300      295
     1717        6        5        6        0       75      121      120       76      294      381      297      290
     1718        6        5        6        0      109      145       87       86      359      334      329      331
     1719        6        5        6        0       74      144      122      121      289      386      383      288
     1720        6        5        6        0       74       33      142      144      215      216      405      289
     1721        6        5        6        0      144      142       68      122      405      278      277      386
     1722        6        5        6        0      145      143       30       87      406      211      210      334
     1723        6        5        6        0      109       71      143      145      282      283      406      359
     1724        6        5        6        0      139       14       13       37      190      185      187      227
! ... 97 like lines cut
! ******--- Create Pilot Element For Rigid Targets ---******** 
mat,5
real,5
type,6
tshape,pilo
en,1821,407
tshape
! ******--- End Create Pilot Element For Rigid Targets ---******** 
keyo,tid,2,1               ! Don't fix the pilot node since scoped to rigid body
keyo,cid,10,0              ! adjust contact stiffness each NR iteration (from Program Controlled setting)
keyo,cid,12,0              ! standard contact
mp,mu,cid,0.2       ! unitless
keyo,cid,2,0               ! augmented Lagrange (from Program Controlled setting)
keyo,cid,4,0               ! on Gauss point (from Program Controlled setting)
keyo,cid,9,0               ! use real geometry with stepped effects
keyo,cid,7,0               ! No Prediction
rmod,cid,3,1.       ! FKN
rmod,cid,5,0.       ! ICONT
rmod,cid,6,0.       ! PINB
rmod,cid,10,0.      ! CNOF
rmod,cid,12,0.      ! FKT
rmod,cid,36,32      ! WB DSID
mp,ex,cid,200000000000.       ! EX of underlying rigid body
/com,*********** Create Contact "Frictional - Belt1-2\Solid1 To Pulley_P80\Solid1" ***********
! ********* Create Contact to Connect To Rigid Body Mass Node *********** 
*set,tid,7
*set,cid,7
et,tid,170
keyo,tid,2,1           ! Set MPC target element and not fix pilot
keyo,tid,4,0           ! Create CE's for all DOFs
type,tid
mat ,cid
real,cid
tshape,pilo
en,1822,771
tshape
! ********* End of Create Contact to Connect To Rigid Body Mass Node *********** 
! ******--- Create Insulation Layer on Rigid Body for Surface BC's ---******** 
eblock,10,,,105
(15i9)
     1823        7        7        7        0      485      484      527      526      695      696      761      698
     1824        7        7        7        0      526      536      486      485      762      700      697      698
     1825        7        7        7        0      526      501      500      536      728      724      726      762
     1826        7        7        7        0      527      502      501      526      730      727      728      761
     1827        7        7        7        0      484      483      528      527      693      694      763      696
     1828        7        7        7        0      528      503      502      527      732      729      730      763
     1829        7        7        7        0      483      482      529      528      691      692      764      694
     1830        7        7        7        0      529      504      503      528      734      731      732      764
     1831        7        7        7        0      482      481      530      529      689      690      765      692
     1832        7        7        7        0      530      505      504      529      736      733      734      765
     1833        7        7        7        0      481      480      531      530      687      688      766      690
     1834        7        7        7        0      531      506      505      530      738      735      736      766
     1835        7        7        7        0      480      479      532      531      685      686      767      688
     1836        7        7        7        0      532      507      506      531      740      737      738      767
     1837        7        7        7        0      479      478      533      532      683      684      768      686
     1838        7        7        7        0      533      508      507      532      742      739      740      768
     1839        7        7        7        0      478      477      534      533      681      682      769      684
     1840        7        7        7        0      534      509      508      533      744      741      742      769
     1841        7        7        7        0      477      476      535      534      678      680      770      682
     1842        7        7        7        0      535      510      509      534      746      743      744      770
! ... 86 like lines cut
! ******--- End Create Insulation Layer on Rigid Body for Surface BC's ---******** 
/com,            Real Constant Set For Above Contact Is 9 & 8 
*set,tid,9
*set,cid,8
r,tid
r,cid
et,tid,170
et,cid,174
eblock,10,,,390
(15i9)
     1928        8        8        8        0      820      862      863      863     1314     1471      863     1315
     1929        8        8        8        0      828      870      871      871     1338     1479      871     1339
     1930        8        8        8        0      828      871      829      829     1339     1341      829     1337
     1931        8        8        8        0      829      871      830      830     1341     1343      830     1340
     1932        8        8        8        0      826      869      827      827     1333     1335      827     1331
     1933        8        8        8        0      825      867      868      868     1329     1476      868     1330
     1934        8        8        8        0      826      868      869      869     1332     1477      869     1333
     1935        8        8        8        0      827      869      870      870     1335     1478      870     1336
     1936        8        8        8        0      871      872      830      830     1480     1344      830     1343
     1937        8        8        8        0      872      873      831      831     1481     1346      831     1345
     1938        8        8        8        0      830      872      831      831     1344     1345      831     1342
     1939        8        8        8        0      873      819      831      831     1309     1306      831     1346
     1940        8        8        8        0      861      819      873      873     1308     1309      873     1469
     1941        8        8        8        0      827      870      828      828     1336     1338      828     1334
     1942        8        8        8        0      825      868      826      826     1330     1332      826     1328
     1943        8        8        8        0      824      867      825      825     1327     1329      825     1325
     1944        8        8        8        0      824      866      867      867     1326     1475      867     1327
     1945        8        8        8        0      823      866      824      824     1324     1326      824     1322
     1946        8        8        8        0      823      865      866      866     1323     1474      866     1324
     1947        8        8        8        0      822      865      823      823     1321     1323      823     1319
! ... 371 like lines cut
eblock,10,,,105
(15i9)
     2318        9        8        9        0      485      484      527      526      695      696      761      698
     2319        9        8        9        0      526      536      486      485      762      700      697      698
     2320        9        8        9        0      526      501      500      536      728      724      726      762
     2321        9        8        9        0      527      502      501      526      730      727      728      761
     2322        9        8        9        0      484      483      528      527      693      694      763      696
     2323        9        8        9        0      528      503      502      527      732      729      730      763
     2324        9        8        9        0      483      482      529      528      691      692      764      694
     2325        9        8        9        0      529      504      503      528      734      731      732      764
     2326        9        8        9        0      482      481      530      529      689      690      765      692
     2327        9        8        9        0      530      505      504      529      736      733      734      765
     2328        9        8        9        0      481      480      531      530      687      688      766      690
     2329        9        8        9        0      531      506      505      530      738      735      736      766
     2330        9        8        9        0      480      479      532      531      685      686      767      688
     2331        9        8        9        0      532      507      506      531      740      737      738      767
     2332        9        8        9        0      479      478      533      532      683      684      768      686
     2333        9        8        9        0      533      508      507      532      742      739      740      768
     2334        9        8        9        0      478      477      534      533      681      682      769      684
     2335        9        8        9        0      534      509      508      533      744      741      742      769
     2336        9        8        9        0      477      476      535      534      678      680      770      682
     2337        9        8        9        0      535      510      509      534      746      743      744      770
! ... 86 like lines cut
! ******--- Create Pilot Element For Rigid Targets ---******** 
mat,8
real,8
type,9
tshape,pilo
en,2423,771
tshape
! ******--- End Create Pilot Element For Rigid Targets ---******** 
keyo,tid,2,1               ! Don't fix the pilot node since scoped to rigid body
keyo,cid,10,0              ! adjust contact stiffness each NR iteration (from Program Controlled setting)
keyo,cid,12,0              ! standard contact
mp,mu,cid,0.2       ! unitless
keyo,cid,2,0               ! augmented Lagrange (from Program Controlled setting)
keyo,cid,4,0               ! on Gauss point (from Program Controlled setting)
keyo,cid,9,0               ! use real geometry with stepped effects
keyo,cid,7,0               ! No Prediction
rmod,cid,3,1.       ! FKN
rmod,cid,5,0.       ! ICONT
rmod,cid,6,0.       ! PINB
rmod,cid,10,0.      ! CNOF
rmod,cid,12,0.      ! FKT
rmod,cid,36,35      ! WB DSID
mp,ex,cid,200000000000.       ! EX of underlying rigid body
nsel,all
esel,all
/wb,contact,end            !  done creating contacts
/golist
/wb,load,start             !  starting to send loads
/com,*********** Create Remote Point "Internal Remote Point 2" ***********
! -------- Remote Point Used by "Revolute - Ground To Pulley_P120\Solid1" --------
*set,_npilot,1996
_npilot49=_npilot
mat,4
real,4
type,4
en,2424,407,1996
/com,*********** Create Remote Point "Internal Remote Point 4" ***********
! -------- Remote Point Used by "Revolute - Ground To Pulley_P80\Solid1" --------
*set,_npilot,1998
_npilot56=_npilot
mat,7
real,7
type,7
en,2425,771,1998
/com,*********** Create Remote Point "Internal Remote Point 5" ***********
! -------- Remote Point Used by "Remote Displacement" --------
*set,_npilot,1999
_npilot62=_npilot
mat,4
real,4
type,4
en,2426,407,1999
/com,*********** Create Joint "Revolute - Ground To Pulley_P120\Solid1" ***********
/com,            Real Constant Set For Above Joint Is 10
! Joint Element Type Declaration and Definition using MPC184
*set,_jid,10
et,_jid,184
keyo,_jid,1,6           ! Revolute Joint
keyo,_jid,4,1           ! Z Axis is revolute axis
sectype,_jid, joint, revo, _wbjoint
secjoint,,12,12
mat,_jid
real,_jid
type,_jid
secnum,_jid
en,1191,,1996        ! body to ground joint
/com,*********** Create Joint "Revolute - Ground To Pulley_P80\Solid1" ***********
/com,            Real Constant Set For Above Joint Is 11
! Joint Element Type Declaration and Definition using MPC184
*set,_jid,11
et,_jid,184
keyo,_jid,1,6           ! Revolute Joint
keyo,_jid,4,1           ! Z Axis is revolute axis
sectype,_jid, joint, revo, _wbjoint
secjoint,,13,13
mat,_jid
real,_jid
type,_jid
secnum,_jid
en,1192,,1998        ! body to ground joint
/com,*********** Construct Remote Displacement ***********

/COM,*** Create a component for all remote displacements ***
CMBLOCK,REMOTEDISPALL,NODE,        1
(8i10)
      1999

/com,*********** Create Joint Drivers **********

*DIM,_loadvari64,TABLE,2,1,1,TIME
! Time values
*TAXIS,_loadvari64(1),1,0.,50.
! Load values
_loadvari64(1,1,1) = 0.
_loadvari64(2,1,1) = 0.1


/gst,on,on
fini
*get,_numnode,node,0,count
*get,_numelem,elem,0,count
*get, _MAXELEMNUM, elem, 0, NUM, MAX
*get, _MAXNODENUM, node, 0, NUM, MAX
*get, _MAXELEMTYPE, etyp, 0, NUM, MAX
*get, _MAXREALCONST, real, 0, NUM, MAX
/go
/wb,load,end               !  done creating loads
/com,--- Number of total nodes = %_numnode%
/com,--- Number of contact elements = 1222
/com,--- Number of spring elements = 0
/com,--- Number of bearing elements = 0
/com,--- Number of solid elements = 686
/com,--- Number of condensed parts = 0
/com,--- Number of total elements = %_numelem%
*get,_wallbsol,active,,time,wall
/com,****************************************************************************
/com,*************************    SOLUTION       ********************************
/com,****************************************************************************
/solu
antype,4                   ! transient analysis
nlgeom,on                  ! Turn on Large Deformation Effects
kbc,1                      ! stepped BC's
_thickRatio=  0     ! Ratio of thick parts in the model
eqsl,sparse,,,,,1
cntr,print,1               ! print out contact info and also make no initial contact an error
dmpoption,emat,no             ! Don't combine emat file for DANSYS
dmpoption,esav,no             ! Don't combine esav file for DANSYS
trnopt,full,,,,,hht        ! HHT time integration method
tintp, mosp			! Choose transient integration settings for moderate speed application
nldiag,cont,iter           ! print out contact info each equilibrium iteration
rescontrol,define,last,last,,dele	   ! Program Controlled
/com,****************************************************
/com,******************* SOLVE FOR LS 1 OF 50 ****************
d,1999,ux,0.
d,1999,uy,0.
d,1999,uz,0.
d,1999,rotx,0.
d,1999,roty,0.
/nopr
/gopr
esel,s,type,,11
dj,all,omgz,%_loadvari64%
esel,all
autots,on                   ! User turned on automatic time stepping
deltim,1,1,1,OFF
time,1.
timint,on                  ! Turn on time integration effects
outres,erase
outres,all,none
outres,nsol,all,
outres,rsol,all
outres,eangl,all
outres,etmp,all
outres,veng,all
outres,strs,all,
outres,epel,all,
outres,eppl,all,
outres,cont,all,
outres,v,all,
outres,a,all,
/nopr
esel,s,type,,1
esel,a,type,,2
esel,a,type,,10,11
cm,_elmisc,elem
esel,all
/gopr
outres,misc,all,_elmisc
! *********** WB SOLVE COMMAND ***********
! check interactive state
*get,ANSINTER_,active,,int
*if,ANSINTER_,ne,0,then
/eof
*endif
solve
/com *************** Write FE CONNECTORS ********* 
CEWRITE,file,ce,,INTE
/com,****************************************************
/com,*************** FINISHED SOLVE FOR LS 1 *************
/com,****************************************************
/com,******************* SOLVE FOR LS 2 OF 50 ****************
/nopr
/gopr
autots,on                   ! User turned on automatic time stepping
deltim,1,1,1,OFF
time,2.
timint,on                  ! Turn on time integration effects
outres,erase
outres,all,none
outres,nsol,all,
outres,rsol,all
outres,eangl,all
outres,etmp,all
outres,veng,all
outres,strs,all,
outres,epel,all,
outres,eppl,all,
outres,cont,all,
outres,v,all,
outres,a,all,
outres,misc,all,_elmisc
solve
/com,****************************************************
/com,*************** FINISHED SOLVE FOR LS 2 *************
/com,****************************************************
/com,******************* SOLVE FOR LS 3 OF 50 ****************
/nopr
/gopr
autots,on                   ! User turned on automatic time stepping
deltim,1,1,1,OFF
time,3.
timint,on                  ! Turn on time integration effects
outres,erase
outres,all,none
outres,nsol,all,
outres,rsol,all
outres,eangl,all
outres,etmp,all
outres,veng,all
outres,strs,all,
outres,epel,all,
outres,eppl,all,
outres,cont,all,
outres,v,all,
outres,a,all,
outres,misc,all,_elmisc
solve
/com,****************************************************
/com,*************** FINISHED SOLVE FOR LS 3 *************
/com,****************************************************
/com,******************* SOLVE FOR LS 4 OF 50 ****************
/nopr
/gopr
autots,on                   ! User turned on automatic time stepping
deltim,1,1,1,OFF
time,4.
timint,on                  ! Turn on time integration effects
outres,erase
outres,all,none
outres,nsol,all,
outres,rsol,all
outres,eangl,all
outres,etmp,all
outres,veng,all
outres,strs,all,
outres,epel,all,
outres,eppl,all,
outres,cont,all,
outres,v,all,
outres,a,all,
outres,misc,all,_elmisc
solve
/com,****************************************************
/com,*************** FINISHED SOLVE FOR LS 4 *************
/com,****************************************************
/com,******************* SOLVE FOR LS 5 OF 50 ****************
/nopr
/gopr
autots,on                   ! User turned on automatic time stepping
deltim,1,1,1,OFF
time,5.
timint,on                  ! Turn on time integration effects
outres,erase
outres,all,none
outres,nsol,all,
outres,rsol,all
outres,eangl,all
outres,etmp,all
outres,veng,all
outres,strs,all,
outres,epel,all,
outres,eppl,all,
outres,cont,all,
outres,v,all,
outres,a,all,
outres,misc,all,_elmisc
solve
/com,****************************************************
/com,*************** FINISHED SOLVE FOR LS 5 *************
/com,****************************************************
/com,******************* SOLVE FOR LS 6 OF 50 ****************
/nopr
/gopr
autots,on                   ! User turned on automatic time stepping
deltim,1,1,1,OFF
time,6.
timint,on                  ! Turn on time integration effects
outres,erase
outres,all,none
outres,nsol,all,
outres,rsol,all
outres,eangl,all
outres,etmp,all
outres,veng,all
outres,strs,all,
outres,epel,all,
outres,eppl,all,
outres,cont,all,
outres,v,all,
outres,a,all,
outres,misc,all,_elmisc
solve
/com,****************************************************
/com,*************** FINISHED SOLVE FOR LS 6 *************
/com,****************************************************
/com,******************* SOLVE FOR LS 7 OF 50 ****************
/nopr
/gopr
autots,on                   ! User turned on automatic time stepping
deltim,1,1,1,OFF
time,7.
timint,on                  ! Turn on time integration effects
outres,erase
outres,all,none
outres,nsol,all,
outres,rsol,all
outres,eangl,all
outres,etmp,all
outres,veng,all
outres,strs,all,
outres,epel,all,
outres,eppl,all,
outres,cont,all,
outres,v,all,
outres,a,all,
outres,misc,all,_elmisc
solve
/com,****************************************************
/com,*************** FINISHED SOLVE FOR LS 7 *************
/com,****************************************************
/com,******************* SOLVE FOR LS 8 OF 50 ****************
/nopr
/gopr
autots,on                   ! User turned on automatic time stepping
deltim,1,1,1,OFF
time,8.
timint,on                  ! Turn on time integration effects
outres,erase
outres,all,none
outres,nsol,all,
outres,rsol,all
outres,eangl,all
outres,etmp,all
outres,veng,all
outres,strs,all,
outres,epel,all,
outres,eppl,all,
outres,cont,all,
outres,v,all,
outres,a,all,
outres,misc,all,_elmisc
solve
/com,****************************************************
/com,*************** FINISHED SOLVE FOR LS 8 *************
/com,****************************************************
/com,******************* SOLVE FOR LS 9 OF 50 ****************
/nopr
/gopr
autots,on                   ! User turned on automatic time stepping
deltim,1,1,1,OFF
time,9.
timint,on                  ! Turn on time integration effects
outres,erase
outres,all,none
outres,nsol,all,
outres,rsol,all
outres,eangl,all
outres,etmp,all
outres,veng,all
outres,strs,all,
outres,epel,all,
outres,eppl,all,
outres,cont,all,
outres,v,all,
outres,a,all,
outres,misc,all,_elmisc
solve
/com,****************************************************
/com,*************** FINISHED SOLVE FOR LS 9 *************
/com,****************************************************
/com,******************* SOLVE FOR LS 10 OF 50 ****************
/nopr
/gopr
autots,on                   ! User turned on automatic time stepping
deltim,1,1,1,OFF
time,10.
timint,on                  ! Turn on time integration effects
outres,erase
outres,all,none
outres,nsol,all,
outres,rsol,all
outres,eangl,all
outres,etmp,all
outres,veng,all
outres,strs,all,
outres,epel,all,
outres,eppl,all,
outres,cont,all,
outres,v,all,
outres,a,all,
outres,misc,all,_elmisc
solve
/com,****************************************************
/com,*************** FINISHED SOLVE FOR LS 10 *************
/com,****************************************************
/com,******************* SOLVE FOR LS 11 OF 50 ****************
/nopr
/gopr
autots,on                   ! User turned on automatic time stepping
deltim,1,1,1,OFF
time,11.
timint,on                  ! Turn on time integration effects
outres,erase
outres,all,none
outres,nsol,all,
outres,rsol,all
outres,eangl,all
outres,etmp,all
outres,veng,all
outres,strs,all,
outres,epel,all,
outres,eppl,all,
outres,cont,all,
outres,v,all,
outres,a,all,
outres,misc,all,_elmisc
solve
/com,****************************************************
/com,*************** FINISHED SOLVE FOR LS 11 *************
/com,****************************************************
/com,******************* SOLVE FOR LS 12 OF 50 ****************
/nopr
/gopr
autots,on                   ! User turned on automatic time stepping
deltim,1,1,1,OFF
time,12.
timint,on                  ! Turn on time integration effects
outres,erase
outres,all,none
outres,nsol,all,
outres,rsol,all
outres,eangl,all
outres,etmp,all
outres,veng,all
outres,strs,all,
outres,epel,all,
outres,eppl,all,
outres,cont,all,
outres,v,all,
outres,a,all,
outres,misc,all,_elmisc
solve
/com,****************************************************
/com,*************** FINISHED SOLVE FOR LS 12 *************
/com,****************************************************
/com,******************* SOLVE FOR LS 13 OF 50 ****************
/nopr
/gopr
autots,on                   ! User turned on automatic time stepping
deltim,1,1,1,OFF
time,13.
timint,on                  ! Turn on time integration effects
outres,erase
outres,all,none
outres,nsol,all,
outres,rsol,all
outres,eangl,all
outres,etmp,all
outres,veng,all
outres,strs,all,
outres,epel,all,
outres,eppl,all,
outres,cont,all,
outres,v,all,
outres,a,all,
outres,misc,all,_elmisc
solve
/com,****************************************************
/com,*************** FINISHED SOLVE FOR LS 13 *************
/com,****************************************************
/com,******************* SOLVE FOR LS 14 OF 50 ****************
/nopr
/gopr
autots,on                   ! User turned on automatic time stepping
deltim,1,1,1,OFF
time,14.
timint,on                  ! Turn on time integration effects
outres,erase
outres,all,none
outres,nsol,all,
outres,rsol,all
outres,eangl,all
outres,etmp,all
outres,veng,all
outres,strs,all,
outres,epel,all,
outres,eppl,all,
outres,cont,all,
outres,v,all,
outres,a,all,
outres,misc,all,_elmisc
solve
/com,****************************************************
/com,*************** FINISHED SOLVE FOR LS 14 *************
/com,****************************************************
/com,******************* SOLVE FOR LS 15 OF 50 ****************
/nopr
/gopr
autots,on                   ! User turned on automatic time stepping
deltim,1,1,1,OFF
time,15.
timint,on                  ! Turn on time integration effects
outres,erase
outres,all,none
outres,nsol,all,
outres,rsol,all
outres,eangl,all
outres,etmp,all
outres,veng,all
outres,strs,all,
outres,epel,all,
outres,eppl,all,
outres,cont,all,
outres,v,all,
outres,a,all,
outres,misc,all,_elmisc
solve
/com,****************************************************
/com,*************** FINISHED SOLVE FOR LS 15 *************
/com,****************************************************
/com,******************* SOLVE FOR LS 16 OF 50 ****************
/nopr
/gopr
autots,on                   ! User turned on automatic time stepping
deltim,1,1,1,OFF
time,16.
timint,on                  ! Turn on time integration effects
outres,erase
outres,all,none
outres,nsol,all,
outres,rsol,all
outres,eangl,all
outres,etmp,all
outres,veng,all
outres,strs,all,
outres,epel,all,
outres,eppl,all,
outres,cont,all,
outres,v,all,
outres,a,all,
outres,misc,all,_elmisc
solve
/com,****************************************************
/com,*************** FINISHED SOLVE FOR LS 16 *************
/com,****************************************************
/com,******************* SOLVE FOR LS 17 OF 50 ****************
/nopr
/gopr
autots,on                   ! User turned on automatic time stepping
deltim,1,1,1,OFF
time,17.
timint,on                  ! Turn on time integration effects
outres,erase
outres,all,none
outres,nsol,all,
outres,rsol,all
outres,eangl,all
outres,etmp,all
outres,veng,all
outres,strs,all,
outres,epel,all,
outres,eppl,all,
outres,cont,all,
outres,v,all,
outres,a,all,
outres,misc,all,_elmisc
solve
/com,****************************************************
/com,*************** FINISHED SOLVE FOR LS 17 *************
/com,****************************************************
/com,******************* SOLVE FOR LS 18 OF 50 ****************
/nopr
/gopr
autots,on                   ! User turned on automatic time stepping
deltim,1,1,1,OFF
time,18.
timint,on                  ! Turn on time integration effects
outres,erase
outres,all,none
outres,nsol,all,
outres,rsol,all
outres,eangl,all
outres,etmp,all
outres,veng,all
outres,strs,all,
outres,epel,all,
outres,eppl,all,
outres,cont,all,
outres,v,all,
outres,a,all,
outres,misc,all,_elmisc
solve
/com,****************************************************
/com,*************** FINISHED SOLVE FOR LS 18 *************
/com,****************************************************
/com,******************* SOLVE FOR LS 19 OF 50 ****************
/nopr
/gopr
autots,on                   ! User turned on automatic time stepping
deltim,1,1,1,OFF
time,19.
timint,on                  ! Turn on time integration effects
outres,erase
outres,all,none
outres,nsol,all,
outres,rsol,all
outres,eangl,all
outres,etmp,all
outres,veng,all
outres,strs,all,
outres,epel,all,
outres,eppl,all,
outres,cont,all,
outres,v,all,
outres,a,all,
outres,misc,all,_elmisc
solve
/com,****************************************************
/com,*************** FINISHED SOLVE FOR LS 19 *************
/com,****************************************************
/com,******************* SOLVE FOR LS 20 OF 50 ****************
/nopr
/gopr
autots,on                   ! User turned on automatic time stepping
deltim,1,1,1,OFF
time,20.
timint,on                  ! Turn on time integration effects
outres,erase
outres,all,none
outres,nsol,all,
outres,rsol,all
outres,eangl,all
outres,etmp,all
outres,veng,all
outres,strs,all,
outres,epel,all,
outres,eppl,all,
outres,cont,all,
outres,v,all,
outres,a,all,
outres,misc,all,_elmisc
solve
/com,****************************************************
/com,*************** FINISHED SOLVE FOR LS 20 *************
/com,****************************************************
/com,******************* SOLVE FOR LS 21 OF 50 ****************
/nopr
/gopr
autots,on                   ! User turned on automatic time stepping
deltim,1,1,1,OFF
time,21.
timint,on                  ! Turn on time integration effects
outres,erase
outres,all,none
outres,nsol,all,
outres,rsol,all
outres,eangl,all
outres,etmp,all
outres,veng,all
outres,strs,all,
outres,epel,all,
outres,eppl,all,
outres,cont,all,
outres,v,all,
outres,a,all,
outres,misc,all,_elmisc
solve
/com,****************************************************
/com,*************** FINISHED SOLVE FOR LS 21 *************
/com,****************************************************
/com,******************* SOLVE FOR LS 22 OF 50 ****************
/nopr
/gopr
autots,on                   ! User turned on automatic time stepping
deltim,1,1,1,OFF
time,22.
timint,on                  ! Turn on time integration effects
outres,erase
outres,all,none
outres,nsol,all,
outres,rsol,all
outres,eangl,all
outres,etmp,all
outres,veng,all
outres,strs,all,
outres,epel,all,
outres,eppl,all,
outres,cont,all,
outres,v,all,
outres,a,all,
outres,misc,all,_elmisc
solve
/com,****************************************************
/com,*************** FINISHED SOLVE FOR LS 22 *************
/com,****************************************************
/com,******************* SOLVE FOR LS 23 OF 50 ****************
/nopr
/gopr
autots,on                   ! User turned on automatic time stepping
deltim,1,1,1,OFF
time,23.
timint,on                  ! Turn on time integration effects
outres,erase
outres,all,none
outres,nsol,all,
outres,rsol,all
outres,eangl,all
outres,etmp,all
outres,veng,all
outres,strs,all,
outres,epel,all,
outres,eppl,all,
outres,cont,all,
outres,v,all,
outres,a,all,
outres,misc,all,_elmisc
solve
/com,****************************************************
/com,*************** FINISHED SOLVE FOR LS 23 *************
/com,****************************************************
/com,******************* SOLVE FOR LS 24 OF 50 ****************
/nopr
/gopr
autots,on                   ! User turned on automatic time stepping
deltim,1,1,1,OFF
time,24.
timint,on                  ! Turn on time integration effects
outres,erase
outres,all,none
outres,nsol,all,
outres,rsol,all
outres,eangl,all
outres,etmp,all
outres,veng,all
outres,strs,all,
outres,epel,all,
outres,eppl,all,
outres,cont,all,
outres,v,all,
outres,a,all,
outres,misc,all,_elmisc
solve
/com,****************************************************
/com,*************** FINISHED SOLVE FOR LS 24 *************
/com,****************************************************
/com,******************* SOLVE FOR LS 25 OF 50 ****************
/nopr
/gopr
autots,on                   ! User turned on automatic time stepping
deltim,1,1,1,OFF
time,25.
timint,on                  ! Turn on time integration effects
outres,erase
outres,all,none
outres,nsol,all,
outres,rsol,all
outres,eangl,all
outres,etmp,all
outres,veng,all
outres,strs,all,
outres,epel,all,
outres,eppl,all,
outres,cont,all,
outres,v,all,
outres,a,all,
outres,misc,all,_elmisc
solve
/com,****************************************************
/com,*************** FINISHED SOLVE FOR LS 25 *************
/com,****************************************************
/com,******************* SOLVE FOR LS 26 OF 50 ****************
/nopr
/gopr
autots,on                   ! User turned on automatic time stepping
deltim,1,1,1,OFF
time,26.
timint,on                  ! Turn on time integration effects
outres,erase
outres,all,none
outres,nsol,all,
outres,rsol,all
outres,eangl,all
outres,etmp,all
outres,veng,all
outres,strs,all,
outres,epel,all,
outres,eppl,all,
outres,cont,all,
outres,v,all,
outres,a,all,
outres,misc,all,_elmisc
solve
/com,****************************************************
/com,*************** FINISHED SOLVE FOR LS 26 *************
/com,****************************************************
/com,******************* SOLVE FOR LS 27 OF 50 ****************
/nopr
/gopr
autots,on                   ! User turned on automatic time stepping
deltim,1,1,1,OFF
time,27.
timint,on                  ! Turn on time integration effects
outres,erase
outres,all,none
outres,nsol,all,
outres,rsol,all
outres,eangl,all
outres,etmp,all
outres,veng,all
outres,strs,all,
outres,epel,all,
outres,eppl,all,
outres,cont,all,
outres,v,all,
outres,a,all,
outres,misc,all,_elmisc
solve
/com,****************************************************
/com,*************** FINISHED SOLVE FOR LS 27 *************
/com,****************************************************
/com,******************* SOLVE FOR LS 28 OF 50 ****************
/nopr
/gopr
autots,on                   ! User turned on automatic time stepping
deltim,1,1,1,OFF
time,28.
timint,on                  ! Turn on time integration effects
outres,erase
outres,all,none
outres,nsol,all,
outres,rsol,all
outres,eangl,all
outres,etmp,all
outres,veng,all
outres,strs,all,
outres,epel,all,
outres,eppl,all,
outres,cont,all,
outres,v,all,
outres,a,all,
outres,misc,all,_elmisc
solve
/com,****************************************************
/com,*************** FINISHED SOLVE FOR LS 28 *************
/com,****************************************************
/com,******************* SOLVE FOR LS 29 OF 50 ****************
/nopr
/gopr
autots,on                   ! User turned on automatic time stepping
deltim,1,1,1,OFF
time,29.
timint,on                  ! Turn on time integration effects
outres,erase
outres,all,none
outres,nsol,all,
outres,rsol,all
outres,eangl,all
outres,etmp,all
outres,veng,all
outres,strs,all,
outres,epel,all,
outres,eppl,all,
outres,cont,all,
outres,v,all,
outres,a,all,
outres,misc,all,_elmisc
solve
/com,****************************************************
/com,*************** FINISHED SOLVE FOR LS 29 *************
/com,****************************************************
/com,******************* SOLVE FOR LS 30 OF 50 ****************
/nopr
/gopr
autots,on                   ! User turned on automatic time stepping
deltim,1,1,1,OFF
time,30.
timint,on                  ! Turn on time integration effects
outres,erase
outres,all,none
outres,nsol,all,
outres,rsol,all
outres,eangl,all
outres,etmp,all
outres,veng,all
outres,strs,all,
outres,epel,all,
outres,eppl,all,
outres,cont,all,
outres,v,all,
outres,a,all,
outres,misc,all,_elmisc
solve
/com,****************************************************
/com,*************** FINISHED SOLVE FOR LS 30 *************
/com,****************************************************
/com,******************* SOLVE FOR LS 31 OF 50 ****************
/nopr
/gopr
autots,on                   ! User turned on automatic time stepping
deltim,1,1,1,OFF
time,31.
timint,on                  ! Turn on time integration effects
outres,erase
outres,all,none
outres,nsol,all,
outres,rsol,all
outres,eangl,all
outres,etmp,all
outres,veng,all
outres,strs,all,
outres,epel,all,
outres,eppl,all,
outres,cont,all,
outres,v,all,
outres,a,all,
outres,misc,all,_elmisc
solve
/com,****************************************************
/com,*************** FINISHED SOLVE FOR LS 31 *************
/com,****************************************************
/com,******************* SOLVE FOR LS 32 OF 50 ****************
/nopr
/gopr
autots,on                   ! User turned on automatic time stepping
deltim,1,1,1,OFF
time,32.
timint,on                  ! Turn on time integration effects
outres,erase
outres,all,none
outres,nsol,all,
outres,rsol,all
outres,eangl,all
outres,etmp,all
outres,veng,all
outres,strs,all,
outres,epel,all,
outres,eppl,all,
outres,cont,all,
outres,v,all,
outres,a,all,
outres,misc,all,_elmisc
solve
/com,****************************************************
/com,*************** FINISHED SOLVE FOR LS 32 *************
/com,****************************************************
/com,******************* SOLVE FOR LS 33 OF 50 ****************
/nopr
/gopr
autots,on                   ! User turned on automatic time stepping
deltim,1,1,1,OFF
time,33.
timint,on                  ! Turn on time integration effects
outres,erase
outres,all,none
outres,nsol,all,
outres,rsol,all
outres,eangl,all
outres,etmp,all
outres,veng,all
outres,strs,all,
outres,epel,all,
outres,eppl,all,
outres,cont,all,
outres,v,all,
outres,a,all,
outres,misc,all,_elmisc
solve
/com,****************************************************
/com,*************** FINISHED SOLVE FOR LS 33 *************
/com,****************************************************
/com,******************* SOLVE FOR LS 34 OF 50 ****************
/nopr
/gopr
autots,on                   ! User turned on automatic time stepping
deltim,1,1,1,OFF
time,34.
timint,on                  ! Turn on time integration effects
outres,erase
outres,all,none
outres,nsol,all,
outres,rsol,all
outres,eangl,all
outres,etmp,all
outres,veng,all
outres,strs,all,
outres,epel,all,
outres,eppl,all,
outres,cont,all,
outres,v,all,
outres,a,all,
outres,misc,all,_elmisc
solve
/com,****************************************************
/com,*************** FINISHED SOLVE FOR LS 34 *************
/com,****************************************************
/com,******************* SOLVE FOR LS 35 OF 50 ****************
/nopr
/gopr
autots,on                   ! User turned on automatic time stepping
deltim,1,1,1,OFF
time,35.
timint,on                  ! Turn on time integration effects
outres,erase
outres,all,none
outres,nsol,all,
outres,rsol,all
outres,eangl,all
outres,etmp,all
outres,veng,all
outres,strs,all,
outres,epel,all,
outres,eppl,all,
outres,cont,all,
outres,v,all,
outres,a,all,
outres,misc,all,_elmisc
solve
/com,****************************************************
/com,*************** FINISHED SOLVE FOR LS 35 *************
/com,****************************************************
/com,******************* SOLVE FOR LS 36 OF 50 ****************
/nopr
/gopr
autots,on                   ! User turned on automatic time stepping
deltim,1,1,1,OFF
time,36.
timint,on                  ! Turn on time integration effects
outres,erase
outres,all,none
outres,nsol,all,
outres,rsol,all
outres,eangl,all
outres,etmp,all
outres,veng,all
outres,strs,all,
outres,epel,all,
outres,eppl,all,
outres,cont,all,
outres,v,all,
outres,a,all,
outres,misc,all,_elmisc
solve
/com,****************************************************
/com,*************** FINISHED SOLVE FOR LS 36 *************
/com,****************************************************
/com,******************* SOLVE FOR LS 37 OF 50 ****************
/nopr
/gopr
autots,on                   ! User turned on automatic time stepping
deltim,1,1,1,OFF
time,37.
timint,on                  ! Turn on time integration effects
outres,erase
outres,all,none
outres,nsol,all,
outres,rsol,all
outres,eangl,all
outres,etmp,all
outres,veng,all
outres,strs,all,
outres,epel,all,
outres,eppl,all,
outres,cont,all,
outres,v,all,
outres,a,all,
outres,misc,all,_elmisc
solve
/com,****************************************************
/com,*************** FINISHED SOLVE FOR LS 37 *************
/com,****************************************************
/com,******************* SOLVE FOR LS 38 OF 50 ****************
/nopr
/gopr
autots,on                   ! User turned on automatic time stepping
deltim,1,1,1,OFF
time,38.
timint,on                  ! Turn on time integration effects
outres,erase
outres,all,none
outres,nsol,all,
outres,rsol,all
outres,eangl,all
outres,etmp,all
outres,veng,all
outres,strs,all,
outres,epel,all,
outres,eppl,all,
outres,cont,all,
outres,v,all,
outres,a,all,
outres,misc,all,_elmisc
solve
/com,****************************************************
/com,*************** FINISHED SOLVE FOR LS 38 *************
/com,****************************************************
/com,******************* SOLVE FOR LS 39 OF 50 ****************
/nopr
/gopr
autots,on                   ! User turned on automatic time stepping
deltim,1,1,1,OFF
time,39.
timint,on                  ! Turn on time integration effects
outres,erase
outres,all,none
outres,nsol,all,
outres,rsol,all
outres,eangl,all
outres,etmp,all
outres,veng,all
outres,strs,all,
outres,epel,all,
outres,eppl,all,
outres,cont,all,
outres,v,all,
outres,a,all,
outres,misc,all,_elmisc
solve
/com,****************************************************
/com,*************** FINISHED SOLVE FOR LS 39 *************
/com,****************************************************
/com,******************* SOLVE FOR LS 40 OF 50 ****************
/nopr
/gopr
autots,on                   ! User turned on automatic time stepping
deltim,1,1,1,OFF
time,40.
timint,on                  ! Turn on time integration effects
outres,erase
outres,all,none
outres,nsol,all,
outres,rsol,all
outres,eangl,all
outres,etmp,all
outres,veng,all
outres,strs,all,
outres,epel,all,
outres,eppl,all,
outres,cont,all,
outres,v,all,
outres,a,all,
outres,misc,all,_elmisc
solve
/com,****************************************************
/com,*************** FINISHED SOLVE FOR LS 40 *************
/com,****************************************************
/com,******************* SOLVE FOR LS 41 OF 50 ****************
/nopr
/gopr
autots,on                   ! User turned on automatic time stepping
deltim,1,1,1,OFF
time,41.
timint,on                  ! Turn on time integration effects
outres,erase
outres,all,none
outres,nsol,all,
outres,rsol,all
outres,eangl,all
outres,etmp,all
outres,veng,all
outres,strs,all,
outres,epel,all,
outres,eppl,all,
outres,cont,all,
outres,v,all,
outres,a,all,
outres,misc,all,_elmisc
solve
/com,****************************************************
/com,*************** FINISHED SOLVE FOR LS 41 *************
/com,****************************************************
/com,******************* SOLVE FOR LS 42 OF 50 ****************
/nopr
/gopr
autots,on                   ! User turned on automatic time stepping
deltim,1,1,1,OFF
time,42.
timint,on                  ! Turn on time integration effects
outres,erase
outres,all,none
outres,nsol,all,
outres,rsol,all
outres,eangl,all
outres,etmp,all
outres,veng,all
outres,strs,all,
outres,epel,all,
outres,eppl,all,
outres,cont,all,
outres,v,all,
outres,a,all,
outres,misc,all,_elmisc
solve
/com,****************************************************
/com,*************** FINISHED SOLVE FOR LS 42 *************
/com,****************************************************
/com,******************* SOLVE FOR LS 43 OF 50 ****************
/nopr
/gopr
autots,on                   ! User turned on automatic time stepping
deltim,1,1,1,OFF
time,43.
timint,on                  ! Turn on time integration effects
outres,erase
outres,all,none
outres,nsol,all,
outres,rsol,all
outres,eangl,all
outres,etmp,all
outres,veng,all
outres,strs,all,
outres,epel,all,
outres,eppl,all,
outres,cont,all,
outres,v,all,
outres,a,all,
outres,misc,all,_elmisc
solve
/com,****************************************************
/com,*************** FINISHED SOLVE FOR LS 43 *************
/com,****************************************************
/com,******************* SOLVE FOR LS 44 OF 50 ****************
/nopr
/gopr
autots,on                   ! User turned on automatic time stepping
deltim,1,1,1,OFF
time,44.
timint,on                  ! Turn on time integration effects
outres,erase
outres,all,none
outres,nsol,all,
outres,rsol,all
outres,eangl,all
outres,etmp,all
outres,veng,all
outres,strs,all,
outres,epel,all,
outres,eppl,all,
outres,cont,all,
outres,v,all,
outres,a,all,
outres,misc,all,_elmisc
solve
/com,****************************************************
/com,*************** FINISHED SOLVE FOR LS 44 *************
/com,****************************************************
/com,******************* SOLVE FOR LS 45 OF 50 ****************
/nopr
/gopr
autots,on                   ! User turned on automatic time stepping
deltim,1,1,1,OFF
time,45.
timint,on                  ! Turn on time integration effects
outres,erase
outres,all,none
outres,nsol,all,
outres,rsol,all
outres,eangl,all
outres,etmp,all
outres,veng,all
outres,strs,all,
outres,epel,all,
outres,eppl,all,
outres,cont,all,
outres,v,all,
outres,a,all,
outres,misc,all,_elmisc
solve
/com,****************************************************
/com,*************** FINISHED SOLVE FOR LS 45 *************
/com,****************************************************
/com,******************* SOLVE FOR LS 46 OF 50 ****************
/nopr
/gopr
autots,on                   ! User turned on automatic time stepping
deltim,1,1,1,OFF
time,46.
timint,on                  ! Turn on time integration effects
outres,erase
outres,all,none
outres,nsol,all,
outres,rsol,all
outres,eangl,all
outres,etmp,all
outres,veng,all
outres,strs,all,
outres,epel,all,
outres,eppl,all,
outres,cont,all,
outres,v,all,
outres,a,all,
outres,misc,all,_elmisc
solve
/com,****************************************************
/com,*************** FINISHED SOLVE FOR LS 46 *************
/com,****************************************************
/com,******************* SOLVE FOR LS 47 OF 50 ****************
/nopr
/gopr
autots,on                   ! User turned on automatic time stepping
deltim,1,1,1,OFF
time,47.
timint,on                  ! Turn on time integration effects
outres,erase
outres,all,none
outres,nsol,all,
outres,rsol,all
outres,eangl,all
outres,etmp,all
outres,veng,all
outres,strs,all,
outres,epel,all,
outres,eppl,all,
outres,cont,all,
outres,v,all,
outres,a,all,
outres,misc,all,_elmisc
solve
/com,****************************************************
/com,*************** FINISHED SOLVE FOR LS 47 *************
/com,****************************************************
/com,******************* SOLVE FOR LS 48 OF 50 ****************
/nopr
/gopr
autots,on                   ! User turned on automatic time stepping
deltim,1,1,1,OFF
time,48.
timint,on                  ! Turn on time integration effects
outres,erase
outres,all,none
outres,nsol,all,
outres,rsol,all
outres,eangl,all
outres,etmp,all
outres,veng,all
outres,strs,all,
outres,epel,all,
outres,eppl,all,
outres,cont,all,
outres,v,all,
outres,a,all,
outres,misc,all,_elmisc
solve
/com,****************************************************
/com,*************** FINISHED SOLVE FOR LS 48 *************
/com,****************************************************
/com,******************* SOLVE FOR LS 49 OF 50 ****************
/nopr
/gopr
autots,on                   ! User turned on automatic time stepping
deltim,1,1,1,OFF
time,49.
timint,on                  ! Turn on time integration effects
outres,erase
outres,all,none
outres,nsol,all,
outres,rsol,all
outres,eangl,all
outres,etmp,all
outres,veng,all
outres,strs,all,
outres,epel,all,
outres,eppl,all,
outres,cont,all,
outres,v,all,
outres,a,all,
outres,misc,all,_elmisc
solve
/com,****************************************************
/com,*************** FINISHED SOLVE FOR LS 49 *************
/com,****************************************************
/com,******************* SOLVE FOR LS 50 OF 50 ****************
/nopr
/gopr
autots,on                   ! User turned on automatic time stepping
deltim,1,1,1,OFF
time,50.
timint,on                  ! Turn on time integration effects
outres,erase
outres,all,none
outres,nsol,all,
outres,rsol,all
outres,eangl,all
outres,etmp,all
outres,veng,all
outres,strs,all,
outres,epel,all,
outres,eppl,all,
outres,cont,all,
outres,v,all,
outres,a,all,
outres,misc,all,_elmisc
solve
/com,****************************************************
/com,*************** FINISHED SOLVE FOR LS 50 *************
*get,_wallasol,active,,time,wall
/nopr
*get,_numnode,node,0,count
*get,_numelem,elem,0,count
*get, _MAXELEMNUM, elem, 0, NUM, MAX
*get, _MAXNODENUM, node, 0, NUM, MAX,,,INTERNAL
*get, _MAXELEMTYPE, etyp, 0, NUM, MAX
*get, _MAXREALCONST, real, 0, NUM, MAX
/gopr
/post1
xmlo,ENCODING,ISO-8859-1
xmlo,parm
/xml,parm,xml
fini
/gopr
*get,_walldone,active,,time,wall
_preptime=(_wallbsol-_wallstrt)*3600
_solvtime=(_wallasol-_wallbsol)*3600
_posttime=(_walldone-_wallasol)*3600
_totaltim=(_walldone-_wallstrt)*3600
*get,_dlbratio,active,0,solu,dlbr
*get,_combtime,active,0,solu,comb
*get,_ssmode,active,0,solu,ssmm
*get,_ndofs,active,0,solu,ndof
*get,_sol_end_time,active,0,set,time
*if,_sol_end_time,eq,50.000000,then
/fclean				!clean distributed files
*endif
/com,--- Total number of nodes = %_numnode%
/com,--- Total number of elements = %_numelem%
/com,--- Element load balance ratio = %_dlbratio%
/com,--- Time to combine distributed files = %_combtime%
/com,--- Sparse memory mode = %_ssmode%
/com,--- Number of DOF = %_ndofs%
/wb,file,end               ! done with WB generated input
