/batch
/config,noeldb,1     ! force off writing results to database
*get,_wallstrt,active,,time,wall
! ANSYS input file written by Workbench version 2022 R1
! File used for geometry attach: C:\Users\Wildf\AppData\Local\Temp\WB_Wildf_24432_2\wbnew_files\dp0\SYS\DM\SYS.scdoc
/title,wbnew--Static Structural (A5)
! ****** Begin Custom Load Command Snippet ******
/COM, ACT Extensions:
/COM,     LSDYNA, 2021.1
/COM,     5f463412-bd3e-484b-87e7-cbc0a665e474, wbex
/COM,
! ****** End   Custom Load Command Snippet ******
*DIM,_wb_ProjectScratch_dir,string,248
_wb_ProjectScratch_dir(1) = 'C:\Users\Wildf\AppData\Local\Temp\WB_Wildf_24432_2\_ProjectScratch\Scr1F96\'
*DIM,_wb_SolverFiles_dir,string,248
_wb_SolverFiles_dir(1) = 'C:\Users\Wildf\AppData\Local\Temp\WB_Wildf_24432_2\wbnew_files\dp0\SYS\MECH\'
*DIM,_wb_userfiles_dir,string,248
_wb_userfiles_dir(1) = 'C:\Users\Wildf\AppData\Local\Temp\WB_Wildf_24432_2\wbnew_files\user_files\'
/com,--- Data in consistent MKS units. See Solving Units in the help system for more information.
/units,MKS
/nopr
/wb,file,start              !  signify a WB generated input file
/prep7
! Turn off shape checking because checks already performed inside WB mesher.
! See help system for more information.
SHPP,OFF,,NOWARN
/nolist
etcon,set             ! allow ANSYS to choose best KEYOP's for 180x elements, resets any applicable keyopt to MAPDL defaults
/com,*********** Nodes for the whole assembly ***********
nblock,3,,3168
(1i9,3e20.9e3)
        1     8.441442418E-03    -3.580356665E-03     7.500000000E-03
        2     8.441442418E-03    -3.580356665E-03     5.000000000E-03
        3     8.441442418E-03    -3.580356665E-03     2.500000000E-03
        4     2.950364409E-03     7.436342830E-03     7.500000000E-03
        5     2.950326494E-03     7.436392621E-03     5.000000000E-03
        6     2.950288580E-03     7.436442412E-03     2.500000000E-03
        7     1.431189531E-02     1.153271512E-03     7.500000000E-03
        8     1.431189531E-02     1.153271512E-03     5.000000000E-03
        9     1.431189531E-02     1.153271512E-03     2.500000000E-03
       10    -1.711753017E-02    -1.156674345E-03     7.500000000E-03
       11    -1.711753017E-02    -1.156674345E-03     5.000000000E-03
       12    -1.711753017E-02    -1.156674345E-03     2.500000000E-03
       13    -1.368291705E-02    -9.763907814E-04     7.500000000E-03
       14    -1.368291705E-02    -9.763907814E-04     5.000000000E-03
       15    -1.368291705E-02    -9.763907814E-04     2.500000000E-03
       16    -1.031052927E-02    -5.820625682E-04     7.500000000E-03
       17    -1.031052927E-02    -5.820625682E-04     5.000000000E-03
       18    -1.031052927E-02    -5.820625682E-04     2.500000000E-03
       19    -2.060462838E-02     1.499056029E-03     7.500000000E-03
       20    -2.060462838E-02     1.499056029E-03     5.000000000E-03
! ... 2861 like lines cut
/wb,elem,start            !  set before creation of elements
/com,*********** Elements for Body 1 "SYS\Solid1" ***********
et,1,186
keyo,1,2,1          ! set full integration on SOLID186
eblock,19,solid,,512
(19i9)
        1        1        1        1        0        0        0        0       20        0        1        1      283      259       43      384      290      298      370
      805     1788     1004      803     1864     1861     1895     2068      806     1844     1789     1005
        1        1        1        1        0        0        0        0       20        0        2        1       43      259      283        2       44      260      284
      803     1004     1788      805      809     1010     1792      811      801     1001     1787     1843
        1        1        1        1        0        0        0        0       20        0        3        2       44      260      284        3       45      261      285
      809     1010     1792      811      813     1014     1794      815      807     1007     1791     1846
        1        1        1        1        0        0        0        0       20        0        4        3       45      261      285      385      399      471      479
      813     1014     1794      815     2082     2131     2295     2084      816     1015     1795     1848
        1        1        1        1        0        0        0        0       20        0        5        1       43      217       25      384      370      312      376
      803     1003      924      802     2068     1936     1937     2076      806     1005     1658      926
        1        1        1        1        0        0        0        0       20        0        6        1       25      217       43        2       26      218       44
      802      924     1003      803      808      928     1009      809      801      923     1656     1001
        1        1        1        1        0        0        0        0       20        0        7        2       26      218       44        3       27      219       45
      808      928     1009      809      812      930     1013      813      807      927     1660     1007
        1        1        1        1        0        0        0        0       20        0        8        3       27      219       45      385      393      457      399
      812      930     1013      813     2081     2111     2130     2082      816      932     1664     1015
        1        1        1        1        0        0        0        0       20        0        9        1       25      274      280      384      376      293      291
      802      925     1823      804     2076     1876     1866     1869      806      926     1824     1840
        1        1        1        1        0        0        0        0       20        0       10        1      280      274       25        2      281      275       26
      804     1823      925      802      810     1826      929      808      801     1839     1822      923
! ... 1005 like lines cut
!Material Id = {E031A036-800D-4B90-973D-7A424A12C775}
/wb,elem,end               !  done creating elements
/com,*********** Send User Defined Coordinate System(s) ***********
csys,0
toffst,273.15,  ! Temperature offset from absolute zero
/com,*********** Set Reference Temperature ***********
tref,22.
/wb,mat,start              !  starting to send materials
/com,*********** Send Materials ***********
Temperature = 'TEMP' ! Temperature
MP,DENS,1,7850,	! kg m^-3
MP,ALPX,1,1.2e-05,	! C^-1
MP,C,1,434,	! J kg^-1 C^-1
MP,KXX,1,60.5,	! W m^-1 C^-1
MP,RSVX,1,1.7e-07,	! kg m^3 A^-2 s^-3
MP,EX,1,200000000000,	! Pa
MP,NUXY,1,0.3,
MP,MURX,1,10000,
MP,UVID,1,c88a97c6-bd3a-40e9-afdf-1470d2aab2cf
MP,UMID,1,59002a79-71c2-428e-906b-55d7dbee100e

/wb,mat,end                !  done sending materials
!************************* Model Summary ********************
!SYS\Solid1,	Structural Steel,	matid,	1
!************************* End Model Summary ********************
! get the diagonal of the bounding box. Needed later for other things
*get,_xmin,node,,mnloc,x
*get,_ymin,node,,mnloc,y
*get,_zmin,node,,mnloc,z
*get,_xmax,node,,mxloc,x
*get,_ymax,node,,mxloc,y
*get,_zmax,node,,mxloc,z
_ASMDIAG=(_xmax-_xmin)*(_xmax-_xmin)+(_ymax-_ymin)*(_ymax-_ymin)+(_zmax-_zmin)*(_zmax-_zmin)
_ASMDIAG=SQRT(_ASMDIAG)
/wb,contact,start          !  starting to send contact
/wb,contact,end            !  done creating contacts
/golist
/wb,load,start             !  starting to send loads
/com,*********** Fixed Supports ***********
CMBLOCK,_FIXEDSU,NODE,      107
(8i10)
       499       500       501       502       503       504       524       525
       621       622       623       624       701       702       703       704
       705       706       707       708       709       710       711       712
       713       714       715       716       717       718       719       720
       721       722       723       724       725       726       727       728
      2342      2343      2344      2345      2346      2347      2348      2349
      2350      2351      2352      2353      2354      2393      2395      2570
      2571      2572      2573      2574      2575      2576      2714      2715
      2716      2717      2718      2719      2720      2721      2722      2723
      2724      2725      2726      2727      2728      2729      2730      2731
      2732      2733      2734      2735      2736      2737      2738      2739
      2740      2741      2742      2743      2744      2745      2746      2747
      2748      2749      2750      2751      2752      2753      2754      2755
      2756      2757      2758
cmsel,s,_FIXEDSU
d,all,all
nsel,all
/com,*********** Define Force Using Surface Effect Elements ***********
local,12,0,0.,0.,0.,0.,0.,0.
csys,0
et,2,154
eblock,10,,,28
(15i9)
     1025        2        2        2       12      700      729      498      505     2713     2341     2340     2356
     1026        2        2        2       12      699      735      729      700     2712     2760     2713     2711
     1027        2        2        2       12      698      741      735      699     2710     2771     2712     2709
     1028        2        2        2       12      697      752      741      698     2708     2782     2710     2707
     1029        2        2        2       12      729      730      497      498     2759     2339     2338     2341
     1030        2        2        2       12      735      736      730      729     2770     2762     2759     2760
     1031        2        2        2       12      741      742      736      735     2781     2773     2770     2771
     1032        2        2        2       12      752      751      742      741     2796     2784     2781     2782
     1033        2        2        2       12      730      731      496      497     2761     2337     2336     2339
     1034        2        2        2       12      736      737      731      730     2772     2764     2761     2762
     1035        2        2        2       12      742      743      737      736     2783     2775     2772     2773
     1036        2        2        2       12      751      750      743      742     2795     2786     2783     2784
     1037        2        2        2       12      731      732      495      496     2763     2335     2334     2337
     1038        2        2        2       12      737      738      732      731     2774     2766     2763     2764
     1039        2        2        2       12      743      744      738      737     2785     2777     2774     2775
     1040        2        2        2       12      750      749      744      743     2794     2788     2785     2786
     1041        2        2        2       12      732      733      494      495     2765     2333     2332     2335
     1042        2        2        2       12      738      739      733      732     2776     2768     2765     2766
     1043        2        2        2       12      744      745      739      738     2787     2779     2776     2777
     1044        2        2        2       12      749      748      745      744     2793     2790     2787     2788
! ... 9 like lines cut
esel,s,type,,2
keyop,2,2,1                ! Apply load in local coordinate system
keyop,2,7,1                ! Use original area so load is constant in large deformation
esel,all
/gst,on,on
fini
*get,_numnode,node,0,count
*get,_numelem,elem,0,count
*get, _MAXELEMNUM, elem, 0, NUM, MAX
*get, _MAXNODENUM, node, 0, NUM, MAX
*get, _MAXELEMTYPE, etyp, 0, NUM, MAX
*get, _MAXREALCONST, real, 0, NUM, MAX
/go
/wb,load,end               !  done creating loads
/com,--- Number of total nodes = %_numnode%
/com,--- Number of contact elements = 28
/com,--- Number of spring elements = 0
/com,--- Number of bearing elements = 0
/com,--- Number of solid elements = 512
/com,--- Number of condensed parts = 0
/com,--- Number of total elements = %_numelem%
*get,_wallbsol,active,,time,wall
/com,****************************************************************************
/com,*************************    SOLUTION       ********************************
/com,****************************************************************************
/solu
antype,0                   ! static analysis
_thickRatio=  1     ! Ratio of thick parts in the model
eqsl,pcg,1e-8,,,,,,1
cntr,print,1               ! print out contact info and also make no initial contact an error
dmpoption,emat,no             ! Don't combine emat file for DANSYS
dmpoption,esav,no             ! Don't combine esav file for DANSYS
nldiag,cont,iter           ! print out contact info each equilibrium iteration
rescontrol,,none                 ! Do not keep any restart files
/com,****************************************************
/com,******************* SOLVE FOR LS 1 OF 1 ****************
esel,s,type,,2
nsle
sfe,all,1,pres,1,1000000.00000007
sfe,all,2,pres,1,0.
sfe,all,3,pres,1,0.
nsel,all
esel,all
/nopr
/gopr
nsub,1,1,1
time,1.
outres,erase
outres,all,none
outres,nsol,all,
outres,rsol,all
outres,eangl,all
outres,etmp,all
outres,veng,all
outres,strs,all,
outres,epel,all,
outres,eppl,all,
outres,cont,all,
! *********** WB SOLVE COMMAND ***********
! check interactive state
*get,ANSINTER_,active,,int
*if,ANSINTER_,ne,0,then
/eof
*endif
solve
/com *************** Write FE CONNECTORS ********* 
CEWRITE,file,ce,,INTE
/com,****************************************************
/com,*************** FINISHED SOLVE FOR LS 1 *************
*get,_wallasol,active,,time,wall
/nopr
*get,_numnode,node,0,count
*get,_numelem,elem,0,count
*get, _MAXELEMNUM, elem, 0, NUM, MAX
*get, _MAXNODENUM, node, 0, NUM, MAX,,,INTERNAL
*get, _MAXELEMTYPE, etyp, 0, NUM, MAX
*get, _MAXREALCONST, real, 0, NUM, MAX
/gopr
*get,_PCGITER,active,,solu,cgiter
/post1
xmlo,ENCODING,ISO-8859-1
xmlo,parm
/xml,parm,xml
fini
/gopr
*get,_walldone,active,,time,wall
_preptime=(_wallbsol-_wallstrt)*3600
_solvtime=(_wallasol-_wallbsol)*3600
_posttime=(_walldone-_wallasol)*3600
_totaltim=(_walldone-_wallstrt)*3600
*get,_dlbratio,active,0,solu,dlbr
*get,_combtime,active,0,solu,comb
*get,_ssmode,active,0,solu,ssmm
*get,_ndofs,active,0,solu,ndof
*get,_sol_end_time,active,0,set,time
*if,_sol_end_time,eq,1.000000,then
/fclean				!clean distributed files
*endif
/com,--- Total number of nodes = %_numnode%
/com,--- Total number of elements = %_numelem%
/com,--- Element load balance ratio = %_dlbratio%
/com,--- Time to combine distributed files = %_combtime%
/com,--- Sparse memory mode = %_ssmode%
/com,--- Number of DOF = %_ndofs%
/wb,file,end               ! done with WB generated input
