/batch
/config,noeldb,1     ! force off writing results to database
*get,_wallstrt,active,,time,wall
! ANSYS input file written by Workbench version 2022 R1
! File used for geometry attach: C:\Users\Wildf\Workplace\NTU-BIME_DoME\ANSYS\Belt-Sim_files\dp0\SYS-2\DM\SYS-2.scdoc
/title,Belt-Sim--Transient (C5)
! ****** Begin Custom Load Command Snippet ******
/COM, ACT Extensions:
/COM,     LSDYNA, 2021.1
/COM,     5f463412-bd3e-484b-87e7-cbc0a665e474, wbex
/COM,
! ****** End   Custom Load Command Snippet ******
*DIM,_wb_ProjectScratch_dir,string,248
_wb_ProjectScratch_dir(1) = 'C:\Users\Wildf\Workplace\NTU-BIME_DoME\ANSYS\_ProjectScratch\Scr5B13\'
*DIM,_wb_SolverFiles_dir,string,248
_wb_SolverFiles_dir(1) = 'C:\Users\Wildf\Workplace\NTU-BIME_DoME\ANSYS\Belt-Sim_files\dp0\SYS-2\MECH\'
*DIM,_wb_userfiles_dir,string,248
_wb_userfiles_dir(1) = 'C:\Users\Wildf\Workplace\NTU-BIME_DoME\ANSYS\Belt-Sim_files\user_files\'
/com,--- Data in consistent MKS units. See Solving Units in the help system for more information.
/units,MKS
/nopr
/wb,file,start              !  signify a WB generated input file
/prep7
! Turn off shape checking because checks already performed inside WB mesher.
! See help system for more information.
SHPP,OFF,,NOWARN
/nolist
etcon,set             ! allow ANSYS to choose best KEYOP's for 180x elements, resets any applicable keyopt to MAPDL defaults
/com,*********** Nodes for the whole assembly ***********
nblock,3,,6261
(1i9,3e20.9e3)
        1     4.360786276E-02     1.983065696E-02    -2.592632069E-12
        2     4.308843829E-02     2.379678835E-02    -2.592632069E-12
        3     4.353179481E-02     2.041148346E-02    -1.414213563E-03
        4     4.334815052E-02     2.181372266E-02    -2.000000000E-03
        5     4.316450624E-02     2.321596186E-02    -1.414213563E-03
        6     4.308843829E-02    -2.379678835E-02    -2.592632069E-12
        7     4.502411237E-02     2.397093114E-02     2.991254145E-17
        8     4.696753010E-02     2.398788288E-02     1.647200561E-17
        9     4.890594739E-02     2.384753243E-02     2.923453457E-18
       10     5.082665293E-02     2.355080013E-02    -1.064426945E-17
       11     5.271705157E-02     2.309963183E-02    -2.414219182E-17
       12     5.456474688E-02     2.249698609E-02    -3.748180010E-17
       13     5.635762248E-02     2.174681482E-02    -5.057561888E-17
       14     5.808392145E-02     2.085403730E-02    -6.333778454E-17
       15     5.973232348E-02     1.982450799E-02    -7.568460830E-17
       16     6.129201905E-02     1.866497809E-02    -8.753512501E-17
       17     6.275278035E-02     1.738305132E-02    -9.881162407E-17
       18     6.410502834E-02     1.598713398E-02    -1.094401591E-16
       19     6.533989556E-02     1.448637990E-02    -1.193510327E-16
       20     6.644928428E-02     1.289063038E-02    -1.284792536E-16
! ... 5673 like lines cut
/com,*********** Nodes for all Remote Points ***********
nblock,3
(1i9,3e20.9e3)
     5693    -5.975927817E-20    -3.634715048E-20     0.000000000E+00
     5694    -5.975927817E-20    -3.634715048E-20     0.000000000E+00
     5695     4.620498512E-02    -1.626303259E-19     0.000000000E+00
     5696     4.620498512E-02    -1.626303259E-19     0.000000000E+00
     5697     0.000000000E+00     0.000000000E+00     0.000000000E+00
-1
/wb,elem,start            !  set before creation of elements
/com,*********** Elements for Body 1 "Pulley_P40\Solid1" ***********
/com,*********** Send Body as a Rigid Body ***********
et,1,21
keyo,1,2,1             ! Moments of inertia in nodal coordinates
keyo,1,3,0         ! 3D Mass With Rotary Intertia
r,1,7.73290592009183e-002,7.73290592009183e-002,7.73290592009183e-002,9.91577280697326e-006,9.91618671933217e-006,1.90345349622925e-005
local,11,0,4.62049851200026e-002,-2.31122602713886e-007,8.57436407872914e-010,7.03215069369699e-002,-1.32045770505799e-008,-1.09142226575867e-005
nrot,5692
csys,0
mat,1
real,1
type,1
en,3190,5692
/com,*********** Elements for Body 2 "Pulley_P28\Solid1" ***********
/com,*********** Send Body as a Rigid Body ***********
et,2,21
keyo,2,2,1             ! Moments of inertia in nodal coordinates
keyo,2,3,0         ! 3D Mass With Rotary Intertia
r,2,4.01190015686301e-002,4.01190015686301e-002,4.01190015686301e-002,2.7677411137366e-006,2.7683496755556e-006,5.10863832292018e-006
local,11,0,-3.58764146870711e-008,-1.53407909274497e-007,6.99978377638699e-010,1.47000718919543e-002,5.77291235632418e-005,6.2956747649805e-006
nrot,4308
csys,0
mat,2
real,2
type,2
en,3189,4308
/com,*********** Elements for Body 3 "Belt\Solid1" ***********
et,3,187
eblock,19,solid,,1336
(19i9)
        3        3        3        3        0        0        0        0       10        0        1      221      222      598      282     1860     1870     1866     1864
     1869     2114
        3        3        3        3        0        0        0        0       10        0        2      221      274      598      222     1862     2094     1866     1860
     1868     1870
        3        3        3        3        0        0        0        0       10        0        3      221      598      567      282     1866     3068     1865     1864
     2114     2113
        3        3        3        3        0        0        0        0       10        0        4      221      598      274      567     1866     2094     1862     1865
     3068     2093
        3        3        3        3        0        0        0        0       10        0        5      208      567      598      282     1788     3068     1789     1787
     2113     2114
        3        3        3        3        0        0        0        0       10        0        6      208      274      598      567     1785     2094     1789     1788
     2093     3068
        3        3        3        3        0        0        0        0       10        0        7      205      559      598      277     1771     3056     1772     1768
     2098     2099
        3        3        3        3        0        0        0        0       10        0        8      205      285      598      559     1770     2119     1772     1771
     2118     3056
        3        3        3        3        0        0        0        0       10        0        9      222      274      598      223     1868     2094     1870     1867
     1872     1876
        3        3        3        3        0        0        0        0       10        0       10      222      598      282      223     1870     2114     1869     1867
     1876     1874
! ... 2653 like lines cut
!Material Id = {07779D28-2012-4064-98A5-DA089BC9BA1C}
/wb,elem,end               !  done creating elements
/com,*********** Send User Defined Coordinate System(s) ***********
local,12,0,-5.9759278166944e-020,-3.63471504805258e-020,0.,0.,0.,0.
local,13,0,4.620498512e-002,-1.62630325872826e-019,0.,0.,0.,0.
csys,0
toffst,273.15,  ! Temperature offset from absolute zero
/com,*********** Set Reference Temperature ***********
tref,22.
/wb,mat,start              !  starting to send materials
/com,*********** Send Materials ***********
Temperature = 'TEMP' ! Temperature
MP,DENS,1,7850,	! kg m^-3
MP,ALPX,1,1.2e-05,	! C^-1
MP,C,1,434,	! J kg^-1 C^-1
MP,KXX,1,60.5,	! W m^-1 C^-1
MP,RSVX,1,1.7e-07,	! kg m^3 A^-2 s^-3
MP,EX,1,200000000000,	! Pa
MP,NUXY,1,0.3,
MP,MURX,1,10000,
MP,UVID,1,4cca7a9b-d371-4890-bc69-939c018f847e
MP,UMID,1,59002a79-71c2-428e-906b-55d7dbee100e

Temperature = 'TEMP' ! Temperature
MP,DENS,2,7850,	! kg m^-3
MP,ALPX,2,1.2e-05,	! C^-1
MP,C,2,434,	! J kg^-1 C^-1
MP,KXX,2,60.5,	! W m^-1 C^-1
MP,RSVX,2,1.7e-07,	! kg m^3 A^-2 s^-3
MP,EX,2,200000000000,	! Pa
MP,NUXY,2,0.3,
MP,MURX,2,10000,
MP,UVID,2,4cca7a9b-d371-4890-bc69-939c018f847e
MP,UMID,2,59002a79-71c2-428e-906b-55d7dbee100e

Temperature = 'TEMP' ! Temperature
MP,DENS,3,7850,	! kg m^-3
MP,ALPX,3,1.2e-05,	! C^-1
MP,C,3,434,	! J kg^-1 C^-1
MP,KXX,3,60.5,	! W m^-1 C^-1
MP,RSVX,3,1.7e-07,	! kg m^3 A^-2 s^-3
MP,EX,3,200000000000,	! Pa
MP,NUXY,3,0.3,
MP,MURX,3,10000,
MP,UVID,3,4cca7a9b-d371-4890-bc69-939c018f847e
MP,UMID,3,59002a79-71c2-428e-906b-55d7dbee100e

/wb,mat,end                !  done sending materials
!************************* Model Summary ********************
!Pulley_P40\Solid1,	Structural Steel,	matid,	1
!Pulley_P28\Solid1,	Structural Steel,	matid,	2
!Belt\Solid1,	Structural Steel,	matid,	3
!************************* End Model Summary ********************
! get the diagonal of the bounding box. Needed later for other things
*get,_xmin,node,,mnloc,x
*get,_ymin,node,,mnloc,y
*get,_zmin,node,,mnloc,z
*get,_xmax,node,,mxloc,x
*get,_ymax,node,,mxloc,y
*get,_zmax,node,,mxloc,z
_ASMDIAG=(_xmax-_xmin)*(_xmax-_xmin)+(_ymax-_ymin)*(_ymax-_ymin)+(_zmax-_zmin)*(_zmax-_zmin)
_ASMDIAG=SQRT(_ASMDIAG)
/wb,contact,start          !  starting to send contact
/com,*********** Create Contact "Frictional - Belt\Solid1 To Pulley_P40\Solid1" ***********
! ********* Create Contact to Connect To Rigid Body Mass Node *********** 
*set,tid,4
*set,cid,4
et,tid,170
keyo,tid,2,1           ! Set MPC target element and not fix pilot
keyo,tid,4,0           ! Create CE's for all DOFs
type,tid
mat ,cid
real,cid
tshape,pilo
en,3198,5692
tshape
! ********* End of Create Contact to Connect To Rigid Body Mass Node *********** 
! ******--- Create Insulation Layer on Rigid Body for Surface BC's ---******** 
eblock,10,,,401
(15i9)
     3199        4        4        4        0     4755     4714     4754     4704     5575     5574     5545     5546
     3200        4        4        4        0     4704     4797     4799     4755     5547     5691     5648     5546
     3201        4        4        4        0     4754     4796     4797     4704     5647     5690     5547     5545
     3202        4        4        4        0     4753     4795     4796     4754     5646     5689     5647     5645
     3203        4        4        4        0     4753     4752     4794     4795     5643     5644     5688     5646
     3204        4        4        4        0     4752     4751     4793     4794     5641     5642     5687     5644
     3205        4        4        4        0     4751     4750     4792     4793     5639     5640     5686     5642
     3206        4        4        4        0     4750     4749     4791     4792     5637     5638     5685     5640
     3207        4        4        4        0     4749     4748     4790     4791     5635     5636     5684     5638
     3208        4        4        4        0     4748     4747     4789     4790     5633     5634     5683     5636
     3209        4        4        4        0     4747     4746     4788     4789     5631     5632     5682     5634
     3210        4        4        4        0     4746     4745     4787     4788     5629     5630     5681     5632
     3211        4        4        4        0     4745     4744     4786     4787     5627     5628     5680     5630
     3212        4        4        4        0     4744     4743     4785     4786     5625     5626     5679     5628
     3213        4        4        4        0     4743     4742     4784     4785     5623     5624     5678     5626
     3214        4        4        4        0     4742     4741     4783     4784     5621     5622     5677     5624
     3215        4        4        4        0     4741     4740     4782     4783     5619     5620     5676     5622
     3216        4        4        4        0     4740     4705     4781     4782     5549     5550     5675     5620
     3217        4        4        4        0     4740     4739     4706     4705     5618     5552     5548     5549
     3218        4        4        4        0     4706     4780     4781     4705     5553     5674     5550     5548
! ... 382 like lines cut
! ******--- End Create Insulation Layer on Rigid Body for Surface BC's ---******** 
/com,            Real Constant Set For Above Contact Is 6 & 5 
*set,tid,6
*set,cid,5
r,tid
r,cid
et,tid,170
et,cid,174
eblock,10,,,1092
(15i9)
     3600        5        5        5        0      248      249      266      266     2011     2017      266     2013
     3601        5        5        5        0      250      251      263      263     2020     2030      263     2023
     3602        5        5        5        0      171      264      172      172     1554     1559      172     1552
     3603        5        5        5        0      171      244      264      264     1553     1989      264     1554
     3604        5        5        5        0      215      265      216      216     1826     1831      216     1824
     3605        5        5        5        0      173      264      243      243     1565     1985      243     1564
     3606        5        5        5        0      246      247      262      262     1998     2008      262     2001
     3607        5        5        5        0      215      231      265      265     1825     1919      265     1826
     3608        5        5        5        0      239      240      262      262     1961     1969      262     1963
     3609        5        5        5        0      252      253      265      265     2033     2040      265     2036
     3610        5        5        5        0      231      232      265      265     1917     1925      265     1919
     3611        5        5        5        0      234      235      263      263     1932     1941      263     1935
     3612        5        5        5        0      244      245      264      264     1987     1995      264     1989
     3613        5        5        5        0      217      265      253      253     1837     2040      253     1836
     3614        5        5        5        0      172      264      173      173     1559     1565      173     1558
     3615        5        5        5        0      216      265      217      217     1831     1837      217     1830
     3616        5        5        5        0      242      243      264      264     1977     1985      264     1980
     3617        5        5        5        0      214      217      253      253     1818     1836      253     1821
     3618        5        5        5        0      170      173      243      243     1546     1564      243     1549
     3619        5        5        5        0      239      262      238      238     1963     1958      238     1955
! ... 1073 like lines cut
eblock,10,,,401
(15i9)
     4692        6        5        6        0     4755     4714     4754     4704     5575     5574     5545     5546
     4693        6        5        6        0     4704     4797     4799     4755     5547     5691     5648     5546
     4694        6        5        6        0     4754     4796     4797     4704     5647     5690     5547     5545
     4695        6        5        6        0     4753     4795     4796     4754     5646     5689     5647     5645
     4696        6        5        6        0     4753     4752     4794     4795     5643     5644     5688     5646
     4697        6        5        6        0     4752     4751     4793     4794     5641     5642     5687     5644
     4698        6        5        6        0     4751     4750     4792     4793     5639     5640     5686     5642
     4699        6        5        6        0     4750     4749     4791     4792     5637     5638     5685     5640
     4700        6        5        6        0     4749     4748     4790     4791     5635     5636     5684     5638
     4701        6        5        6        0     4748     4747     4789     4790     5633     5634     5683     5636
     4702        6        5        6        0     4747     4746     4788     4789     5631     5632     5682     5634
     4703        6        5        6        0     4746     4745     4787     4788     5629     5630     5681     5632
     4704        6        5        6        0     4745     4744     4786     4787     5627     5628     5680     5630
     4705        6        5        6        0     4744     4743     4785     4786     5625     5626     5679     5628
     4706        6        5        6        0     4743     4742     4784     4785     5623     5624     5678     5626
     4707        6        5        6        0     4742     4741     4783     4784     5621     5622     5677     5624
     4708        6        5        6        0     4741     4740     4782     4783     5619     5620     5676     5622
     4709        6        5        6        0     4740     4705     4781     4782     5549     5550     5675     5620
     4710        6        5        6        0     4740     4739     4706     4705     5618     5552     5548     5549
     4711        6        5        6        0     4706     4780     4781     4705     5553     5674     5550     5548
! ... 382 like lines cut
! ******--- Create Pilot Element For Rigid Targets ---******** 
mat,5
real,5
type,6
tshape,pilo
en,5093,5692
tshape
! ******--- End Create Pilot Element For Rigid Targets ---******** 
keyo,tid,2,1               ! Don't fix the pilot node since scoped to rigid body
keyo,cid,10,0              ! adjust contact stiffness each NR iteration (from Program Controlled setting)
keyo,cid,12,0              ! standard contact
mp,mu,cid,0.2       ! unitless
keyo,cid,2,0               ! augmented Lagrange (from Program Controlled setting)
keyo,cid,4,0               ! on Gauss point (from Program Controlled setting)
keyo,cid,9,0               ! use real geometry with stepped effects
keyo,cid,7,0               ! No Prediction
rmod,cid,3,1.       ! FKN
rmod,cid,5,0.       ! ICONT
rmod,cid,6,0.       ! PINB
rmod,cid,10,0.      ! CNOF
rmod,cid,12,0.      ! FKT
rmod,cid,36,33      ! WB DSID
mp,ex,cid,200000000000.       ! EX of underlying rigid body
/com,*********** Create Contact "Frictional - Belt\Solid1 To Pulley_P28\Solid1" ***********
! ********* Create Contact to Connect To Rigid Body Mass Node *********** 
*set,tid,7
*set,cid,7
et,tid,170
keyo,tid,2,1           ! Set MPC target element and not fix pilot
keyo,tid,4,0           ! Create CE's for all DOFs
type,tid
mat ,cid
real,cid
tshape,pilo
en,5094,4308
tshape
! ********* End of Create Contact to Connect To Rigid Body Mass Node *********** 
! ******--- Create Insulation Layer on Rigid Body for Surface BC's ---******** 
eblock,10,,,359
(15i9)
     5095        7        7        7        0     3449     3441     3471     3471     4208     4210     3471     4230
     5096        7        7        7        0     3458     3446     3434     3433     4223     4190     4186     4187
     5097        7        7        7        0     3434     3446     3474     3435     4190     4224     4192     4189
     5098        7        7        7        0     3459     3458     3433     3432     4245     4187     4183     4184
     5099        7        7        7        0     3460     3459     3487     3488     4246     4247     4286     4249
     5100        7        7        7        0     3459     3432     3486     3487     4184     4185     4285     4247
     5101        7        7        7        0     3431     3470     3448     3465     4181     4229     4228     4180
     5102        7        7        7        0     3431     3499     3513     3470     4182     4299     4266     4181
     5103        7        7        7        0     3465     3492     3499     3431     4258     4292     4182     4180
     5104        7        7        7        0     3465     3464     3491     3492     4256     4257     4291     4258
     5105        7        7        7        0     3464     3463     3490     3491     4254     4255     4290     4257
     5106        7        7        7        0     3463     3462     3489     3490     4252     4253     4288     4255
     5107        7        7        7        0     3462     3447     3502     3489     4225     4227     4289     4253
     5108        7        7        7        0     3447     3472     3501     3502     4226     4267     4301     4227
     5109        7        7        7        0     3472     3468     3496     3501     4263     4264     4296     4267
     5110        7        7        7        0     3468     3461     3495     3496     4250     4251     4295     4264
     5111        7        7        7        0     3461     3460     3488     3495     4248     4249     4287     4251
     5112        7        7        7        0     3433     3485     3486     3432     4188     4283     4185     4183
     5113        7        7        7        0     3434     3508     3485     3433     4191     4284     4188     4186
     5114        7        7        7        0     3435     3507     3508     3434     4193     4305     4191     4189
! ... 340 like lines cut
! ******--- End Create Insulation Layer on Rigid Body for Surface BC's ---******** 
/com,            Real Constant Set For Above Contact Is 9 & 8 
*set,tid,9
*set,cid,8
r,tid
r,cid
et,tid,170
et,cid,174
eblock,10,,,1092
(15i9)
     5454        8        8        8        0       78       77      302      302      960      962      302      966
     5455        8        8        8        0       70      291       71       71      929      934       71      928
     5456        8        8        8        0       75      299       76       76      953      957       76      952
     5457        8        8        8        0       22      293       23       23      706      712       23      704
     5458        8        8        8        0       31      292       32       32      749      754       32      746
     5459        8        8        8        0       45      303       46       46      813      818       46      812
     5460        8        8        8        0       17      289       18       18      684      687       18      683
     5461        8        8        8        0       80      297       81       81      974      978       81      973
     5462        8        8        8        0       52       89      294      294      851     1017      294      852
     5463        8        8        8        0      289      302       77       77     2130      962       77      961
     5464        8        8        8        0       52      294       53       53      852      856       53      850
     5465        8        8        8        0      294       46      303      303      817      818      303     2144
     5466        8        8        8        0        7      295        8        8      638      643        8      636
     5467        8        8        8        0       84      295       85       85      990      995       85      989
     5468        8        8        8        0       59      301       60       60      882      886       60      881
     5469        8        8        8        0       46      294       47       47      817      823       47      815
     5470        8        8        8        0       24      291       25       25      717      721       25      716
     5471        8        8        8        0       89       90      294      294     1015     1022      294     1017
     5472        8        8        8        0       72      293       73       73      940      943       73      939
     5473        8        8        8        0       47      294       91       91      823     1028       91      822
! ... 1073 like lines cut
eblock,10,,,359
(15i9)
     6546        9        8        9        0     3449     3441     3471     3471     4208     4210     3471     4230
     6547        9        8        9        0     3458     3446     3434     3433     4223     4190     4186     4187
     6548        9        8        9        0     3434     3446     3474     3435     4190     4224     4192     4189
     6549        9        8        9        0     3459     3458     3433     3432     4245     4187     4183     4184
     6550        9        8        9        0     3460     3459     3487     3488     4246     4247     4286     4249
     6551        9        8        9        0     3459     3432     3486     3487     4184     4185     4285     4247
     6552        9        8        9        0     3431     3470     3448     3465     4181     4229     4228     4180
     6553        9        8        9        0     3431     3499     3513     3470     4182     4299     4266     4181
     6554        9        8        9        0     3465     3492     3499     3431     4258     4292     4182     4180
     6555        9        8        9        0     3465     3464     3491     3492     4256     4257     4291     4258
     6556        9        8        9        0     3464     3463     3490     3491     4254     4255     4290     4257
     6557        9        8        9        0     3463     3462     3489     3490     4252     4253     4288     4255
     6558        9        8        9        0     3462     3447     3502     3489     4225     4227     4289     4253
     6559        9        8        9        0     3447     3472     3501     3502     4226     4267     4301     4227
     6560        9        8        9        0     3472     3468     3496     3501     4263     4264     4296     4267
     6561        9        8        9        0     3468     3461     3495     3496     4250     4251     4295     4264
     6562        9        8        9        0     3461     3460     3488     3495     4248     4249     4287     4251
     6563        9        8        9        0     3433     3485     3486     3432     4188     4283     4185     4183
     6564        9        8        9        0     3434     3508     3485     3433     4191     4284     4188     4186
     6565        9        8        9        0     3435     3507     3508     3434     4193     4305     4191     4189
! ... 340 like lines cut
! ******--- Create Pilot Element For Rigid Targets ---******** 
mat,8
real,8
type,9
tshape,pilo
en,6905,4308
tshape
! ******--- End Create Pilot Element For Rigid Targets ---******** 
keyo,tid,2,1               ! Don't fix the pilot node since scoped to rigid body
keyo,cid,10,0              ! adjust contact stiffness each NR iteration (from Program Controlled setting)
keyo,cid,12,0              ! standard contact
mp,mu,cid,0.2       ! unitless
keyo,cid,2,0               ! augmented Lagrange (from Program Controlled setting)
keyo,cid,4,0               ! on Gauss point (from Program Controlled setting)
keyo,cid,9,0               ! use real geometry with stepped effects
keyo,cid,7,0               ! No Prediction
rmod,cid,3,1.       ! FKN
rmod,cid,5,0.       ! ICONT
rmod,cid,6,0.       ! PINB
rmod,cid,10,0.      ! CNOF
rmod,cid,12,0.      ! FKT
rmod,cid,36,36      ! WB DSID
mp,ex,cid,200000000000.       ! EX of underlying rigid body
nsel,all
esel,all
/wb,contact,end            !  done creating contacts
/golist
/wb,load,start             !  starting to send loads
/com,*********** Create Remote Point "Internal Remote Point 2" ***********
! -------- Remote Point Used by "Revolute - Ground To Pulley_P28\Solid1" --------
*set,_npilot,5694
_npilot50=_npilot
mat,7
real,7
type,7
en,6906,4308,5694
/com,*********** Create Remote Point "Internal Remote Point 6" ***********
! -------- Remote Point Used by "Revolute - Ground To Pulley_P40\Solid1" --------
*set,_npilot,5696
_npilot65=_npilot
mat,4
real,4
type,4
en,6907,5692,5696
/com,*********** Create Remote Point "Internal Remote Point 3" ***********
! -------- Remote Point Used by "Remote Displacement" --------
*set,_npilot,5697
_npilot71=_npilot
mat,4
real,4
type,4
en,6908,5692,5697
/com,*********** Create Joint "Revolute - Ground To Pulley_P28\Solid1" ***********
/com,            Real Constant Set For Above Joint Is 10
! Joint Element Type Declaration and Definition using MPC184
*set,_jid,10
et,_jid,184
keyo,_jid,1,6           ! Revolute Joint
keyo,_jid,4,1           ! Z Axis is revolute axis
sectype,_jid, joint, revo, _wbjoint
secjoint,,12,12
mat,_jid
real,_jid
type,_jid
secnum,_jid
en,3191,,5694        ! body to ground joint
/com,*********** Create Joint "Revolute - Ground To Pulley_P40\Solid1" ***********
/com,            Real Constant Set For Above Joint Is 11
! Joint Element Type Declaration and Definition using MPC184
*set,_jid,11
et,_jid,184
keyo,_jid,1,6           ! Revolute Joint
keyo,_jid,4,1           ! Z Axis is revolute axis
sectype,_jid, joint, revo, _wbjoint
secjoint,,13,13
mat,_jid
real,_jid
type,_jid
secnum,_jid
en,3192,,5696        ! body to ground joint
/com,*********** Construct Remote Displacement ***********

/COM,*** Create a component for all remote displacements ***
CMBLOCK,REMOTEDISPALL,NODE,        1
(8i10)
      5697

/com,*********** Create Joint Drivers **********

*DIM,_loadvari73,TABLE,2,1,1,TIME
! Time values
*TAXIS,_loadvari73(1),1,0.,50.
! Load values
_loadvari73(1,1,1) = 0.
_loadvari73(2,1,1) = 2.14e-002


/gst,on,on
fini
*get,_numnode,node,0,count
*get,_numelem,elem,0,count
*get, _MAXELEMNUM, elem, 0, NUM, MAX
*get, _MAXNODENUM, node, 0, NUM, MAX
*get, _MAXELEMTYPE, etyp, 0, NUM, MAX
*get, _MAXREALCONST, real, 0, NUM, MAX
/go
/wb,load,end               !  done creating loads
/com,--- Number of total nodes = %_numnode%
/com,--- Number of contact elements = 3704
/com,--- Number of spring elements = 0
/com,--- Number of bearing elements = 0
/com,--- Number of solid elements = 2098
/com,--- Number of condensed parts = 0
/com,--- Number of total elements = %_numelem%
*get,_wallbsol,active,,time,wall
/com,****************************************************************************
/com,*************************    SOLUTION       ********************************
/com,****************************************************************************
/solu
antype,4                   ! transient analysis
nlgeom,on                  ! Turn on Large Deformation Effects
kbc,1                      ! stepped BC's
_thickRatio=  0     ! Ratio of thick parts in the model
eqsl,sparse,,,,,1
cntr,print,1               ! print out contact info and also make no initial contact an error
dmpoption,emat,no             ! Don't combine emat file for DANSYS
dmpoption,esav,no             ! Don't combine esav file for DANSYS
trnopt,full,,,,,hht        ! HHT time integration method
tintp, mosp			! Choose transient integration settings for moderate speed application
nldiag,cont,iter           ! print out contact info each equilibrium iteration
rescontrol,define,last,last,,dele	   ! Program Controlled
/com,****************************************************
/com,******************* SOLVE FOR LS 1 OF 50 ****************
d,5697,ux,0.
d,5697,uy,0.
d,5697,uz,0.
d,5697,rotx,0.
d,5697,roty,0.
/nopr
/gopr
esel,s,type,,10
dj,all,omgz,%_loadvari73%
esel,all
autots,on                   ! User turned on automatic time stepping
deltim,1,1,1,OFF
time,1.
timint,on                  ! Turn on time integration effects
outres,erase
outres,all,none
outres,nsol,all,
outres,rsol,all
outres,eangl,all
outres,etmp,all
outres,veng,all
outres,strs,all,
outres,epel,all,
outres,eppl,all,
outres,cont,all,
outres,v,all,
outres,a,all,
/nopr
esel,s,type,,1
esel,a,type,,2
esel,a,type,,10,11
cm,_elmisc,elem
esel,all
/gopr
outres,misc,all,_elmisc
! *********** WB SOLVE COMMAND ***********
! check interactive state
*get,ANSINTER_,active,,int
*if,ANSINTER_,ne,0,then
/eof
*endif
solve
/com *************** Write FE CONNECTORS ********* 
CEWRITE,file,ce,,INTE
/com,****************************************************
/com,*************** FINISHED SOLVE FOR LS 1 *************
/com,****************************************************
/com,******************* SOLVE FOR LS 2 OF 50 ****************
/nopr
/gopr
autots,on                   ! User turned on automatic time stepping
deltim,1,1,1,OFF
time,2.
timint,on                  ! Turn on time integration effects
outres,erase
outres,all,none
outres,nsol,all,
outres,rsol,all
outres,eangl,all
outres,etmp,all
outres,veng,all
outres,strs,all,
outres,epel,all,
outres,eppl,all,
outres,cont,all,
outres,v,all,
outres,a,all,
outres,misc,all,_elmisc
solve
/com,****************************************************
/com,*************** FINISHED SOLVE FOR LS 2 *************
/com,****************************************************
/com,******************* SOLVE FOR LS 3 OF 50 ****************
/nopr
/gopr
autots,on                   ! User turned on automatic time stepping
deltim,1,1,1,OFF
time,3.
timint,on                  ! Turn on time integration effects
outres,erase
outres,all,none
outres,nsol,all,
outres,rsol,all
outres,eangl,all
outres,etmp,all
outres,veng,all
outres,strs,all,
outres,epel,all,
outres,eppl,all,
outres,cont,all,
outres,v,all,
outres,a,all,
outres,misc,all,_elmisc
solve
/com,****************************************************
/com,*************** FINISHED SOLVE FOR LS 3 *************
/com,****************************************************
/com,******************* SOLVE FOR LS 4 OF 50 ****************
/nopr
/gopr
autots,on                   ! User turned on automatic time stepping
deltim,1,1,1,OFF
time,4.
timint,on                  ! Turn on time integration effects
outres,erase
outres,all,none
outres,nsol,all,
outres,rsol,all
outres,eangl,all
outres,etmp,all
outres,veng,all
outres,strs,all,
outres,epel,all,
outres,eppl,all,
outres,cont,all,
outres,v,all,
outres,a,all,
outres,misc,all,_elmisc
solve
/com,****************************************************
/com,*************** FINISHED SOLVE FOR LS 4 *************
/com,****************************************************
/com,******************* SOLVE FOR LS 5 OF 50 ****************
/nopr
/gopr
autots,on                   ! User turned on automatic time stepping
deltim,1,1,1,OFF
time,5.
timint,on                  ! Turn on time integration effects
outres,erase
outres,all,none
outres,nsol,all,
outres,rsol,all
outres,eangl,all
outres,etmp,all
outres,veng,all
outres,strs,all,
outres,epel,all,
outres,eppl,all,
outres,cont,all,
outres,v,all,
outres,a,all,
outres,misc,all,_elmisc
solve
/com,****************************************************
/com,*************** FINISHED SOLVE FOR LS 5 *************
/com,****************************************************
/com,******************* SOLVE FOR LS 6 OF 50 ****************
/nopr
/gopr
autots,on                   ! User turned on automatic time stepping
deltim,1,1,1,OFF
time,6.
timint,on                  ! Turn on time integration effects
outres,erase
outres,all,none
outres,nsol,all,
outres,rsol,all
outres,eangl,all
outres,etmp,all
outres,veng,all
outres,strs,all,
outres,epel,all,
outres,eppl,all,
outres,cont,all,
outres,v,all,
outres,a,all,
outres,misc,all,_elmisc
solve
/com,****************************************************
/com,*************** FINISHED SOLVE FOR LS 6 *************
/com,****************************************************
/com,******************* SOLVE FOR LS 7 OF 50 ****************
/nopr
/gopr
autots,on                   ! User turned on automatic time stepping
deltim,1,1,1,OFF
time,7.
timint,on                  ! Turn on time integration effects
outres,erase
outres,all,none
outres,nsol,all,
outres,rsol,all
outres,eangl,all
outres,etmp,all
outres,veng,all
outres,strs,all,
outres,epel,all,
outres,eppl,all,
outres,cont,all,
outres,v,all,
outres,a,all,
outres,misc,all,_elmisc
solve
/com,****************************************************
/com,*************** FINISHED SOLVE FOR LS 7 *************
/com,****************************************************
/com,******************* SOLVE FOR LS 8 OF 50 ****************
/nopr
/gopr
autots,on                   ! User turned on automatic time stepping
deltim,1,1,1,OFF
time,8.
timint,on                  ! Turn on time integration effects
outres,erase
outres,all,none
outres,nsol,all,
outres,rsol,all
outres,eangl,all
outres,etmp,all
outres,veng,all
outres,strs,all,
outres,epel,all,
outres,eppl,all,
outres,cont,all,
outres,v,all,
outres,a,all,
outres,misc,all,_elmisc
solve
/com,****************************************************
/com,*************** FINISHED SOLVE FOR LS 8 *************
/com,****************************************************
/com,******************* SOLVE FOR LS 9 OF 50 ****************
/nopr
/gopr
autots,on                   ! User turned on automatic time stepping
deltim,1,1,1,OFF
time,9.
timint,on                  ! Turn on time integration effects
outres,erase
outres,all,none
outres,nsol,all,
outres,rsol,all
outres,eangl,all
outres,etmp,all
outres,veng,all
outres,strs,all,
outres,epel,all,
outres,eppl,all,
outres,cont,all,
outres,v,all,
outres,a,all,
outres,misc,all,_elmisc
solve
/com,****************************************************
/com,*************** FINISHED SOLVE FOR LS 9 *************
/com,****************************************************
/com,******************* SOLVE FOR LS 10 OF 50 ****************
/nopr
/gopr
autots,on                   ! User turned on automatic time stepping
deltim,1,1,1,OFF
time,10.
timint,on                  ! Turn on time integration effects
outres,erase
outres,all,none
outres,nsol,all,
outres,rsol,all
outres,eangl,all
outres,etmp,all
outres,veng,all
outres,strs,all,
outres,epel,all,
outres,eppl,all,
outres,cont,all,
outres,v,all,
outres,a,all,
outres,misc,all,_elmisc
solve
/com,****************************************************
/com,*************** FINISHED SOLVE FOR LS 10 *************
/com,****************************************************
/com,******************* SOLVE FOR LS 11 OF 50 ****************
/nopr
/gopr
autots,on                   ! User turned on automatic time stepping
deltim,1,1,1,OFF
time,11.
timint,on                  ! Turn on time integration effects
outres,erase
outres,all,none
outres,nsol,all,
outres,rsol,all
outres,eangl,all
outres,etmp,all
outres,veng,all
outres,strs,all,
outres,epel,all,
outres,eppl,all,
outres,cont,all,
outres,v,all,
outres,a,all,
outres,misc,all,_elmisc
solve
/com,****************************************************
/com,*************** FINISHED SOLVE FOR LS 11 *************
/com,****************************************************
/com,******************* SOLVE FOR LS 12 OF 50 ****************
/nopr
/gopr
autots,on                   ! User turned on automatic time stepping
deltim,1,1,1,OFF
time,12.
timint,on                  ! Turn on time integration effects
outres,erase
outres,all,none
outres,nsol,all,
outres,rsol,all
outres,eangl,all
outres,etmp,all
outres,veng,all
outres,strs,all,
outres,epel,all,
outres,eppl,all,
outres,cont,all,
outres,v,all,
outres,a,all,
outres,misc,all,_elmisc
solve
/com,****************************************************
/com,*************** FINISHED SOLVE FOR LS 12 *************
/com,****************************************************
/com,******************* SOLVE FOR LS 13 OF 50 ****************
/nopr
/gopr
autots,on                   ! User turned on automatic time stepping
deltim,1,1,1,OFF
time,13.
timint,on                  ! Turn on time integration effects
outres,erase
outres,all,none
outres,nsol,all,
outres,rsol,all
outres,eangl,all
outres,etmp,all
outres,veng,all
outres,strs,all,
outres,epel,all,
outres,eppl,all,
outres,cont,all,
outres,v,all,
outres,a,all,
outres,misc,all,_elmisc
solve
/com,****************************************************
/com,*************** FINISHED SOLVE FOR LS 13 *************
/com,****************************************************
/com,******************* SOLVE FOR LS 14 OF 50 ****************
/nopr
/gopr
autots,on                   ! User turned on automatic time stepping
deltim,1,1,1,OFF
time,14.
timint,on                  ! Turn on time integration effects
outres,erase
outres,all,none
outres,nsol,all,
outres,rsol,all
outres,eangl,all
outres,etmp,all
outres,veng,all
outres,strs,all,
outres,epel,all,
outres,eppl,all,
outres,cont,all,
outres,v,all,
outres,a,all,
outres,misc,all,_elmisc
solve
/com,****************************************************
/com,*************** FINISHED SOLVE FOR LS 14 *************
/com,****************************************************
/com,******************* SOLVE FOR LS 15 OF 50 ****************
/nopr
/gopr
autots,on                   ! User turned on automatic time stepping
deltim,1,1,1,OFF
time,15.
timint,on                  ! Turn on time integration effects
outres,erase
outres,all,none
outres,nsol,all,
outres,rsol,all
outres,eangl,all
outres,etmp,all
outres,veng,all
outres,strs,all,
outres,epel,all,
outres,eppl,all,
outres,cont,all,
outres,v,all,
outres,a,all,
outres,misc,all,_elmisc
solve
/com,****************************************************
/com,*************** FINISHED SOLVE FOR LS 15 *************
/com,****************************************************
/com,******************* SOLVE FOR LS 16 OF 50 ****************
/nopr
/gopr
autots,on                   ! User turned on automatic time stepping
deltim,1,1,1,OFF
time,16.
timint,on                  ! Turn on time integration effects
outres,erase
outres,all,none
outres,nsol,all,
outres,rsol,all
outres,eangl,all
outres,etmp,all
outres,veng,all
outres,strs,all,
outres,epel,all,
outres,eppl,all,
outres,cont,all,
outres,v,all,
outres,a,all,
outres,misc,all,_elmisc
solve
/com,****************************************************
/com,*************** FINISHED SOLVE FOR LS 16 *************
/com,****************************************************
/com,******************* SOLVE FOR LS 17 OF 50 ****************
/nopr
/gopr
autots,on                   ! User turned on automatic time stepping
deltim,1,1,1,OFF
time,17.
timint,on                  ! Turn on time integration effects
outres,erase
outres,all,none
outres,nsol,all,
outres,rsol,all
outres,eangl,all
outres,etmp,all
outres,veng,all
outres,strs,all,
outres,epel,all,
outres,eppl,all,
outres,cont,all,
outres,v,all,
outres,a,all,
outres,misc,all,_elmisc
solve
/com,****************************************************
/com,*************** FINISHED SOLVE FOR LS 17 *************
/com,****************************************************
/com,******************* SOLVE FOR LS 18 OF 50 ****************
/nopr
/gopr
autots,on                   ! User turned on automatic time stepping
deltim,1,1,1,OFF
time,18.
timint,on                  ! Turn on time integration effects
outres,erase
outres,all,none
outres,nsol,all,
outres,rsol,all
outres,eangl,all
outres,etmp,all
outres,veng,all
outres,strs,all,
outres,epel,all,
outres,eppl,all,
outres,cont,all,
outres,v,all,
outres,a,all,
outres,misc,all,_elmisc
solve
/com,****************************************************
/com,*************** FINISHED SOLVE FOR LS 18 *************
/com,****************************************************
/com,******************* SOLVE FOR LS 19 OF 50 ****************
/nopr
/gopr
autots,on                   ! User turned on automatic time stepping
deltim,1,1,1,OFF
time,19.
timint,on                  ! Turn on time integration effects
outres,erase
outres,all,none
outres,nsol,all,
outres,rsol,all
outres,eangl,all
outres,etmp,all
outres,veng,all
outres,strs,all,
outres,epel,all,
outres,eppl,all,
outres,cont,all,
outres,v,all,
outres,a,all,
outres,misc,all,_elmisc
solve
/com,****************************************************
/com,*************** FINISHED SOLVE FOR LS 19 *************
/com,****************************************************
/com,******************* SOLVE FOR LS 20 OF 50 ****************
/nopr
/gopr
autots,on                   ! User turned on automatic time stepping
deltim,1,1,1,OFF
time,20.
timint,on                  ! Turn on time integration effects
outres,erase
outres,all,none
outres,nsol,all,
outres,rsol,all
outres,eangl,all
outres,etmp,all
outres,veng,all
outres,strs,all,
outres,epel,all,
outres,eppl,all,
outres,cont,all,
outres,v,all,
outres,a,all,
outres,misc,all,_elmisc
solve
/com,****************************************************
/com,*************** FINISHED SOLVE FOR LS 20 *************
/com,****************************************************
/com,******************* SOLVE FOR LS 21 OF 50 ****************
/nopr
/gopr
autots,on                   ! User turned on automatic time stepping
deltim,1,1,1,OFF
time,21.
timint,on                  ! Turn on time integration effects
outres,erase
outres,all,none
outres,nsol,all,
outres,rsol,all
outres,eangl,all
outres,etmp,all
outres,veng,all
outres,strs,all,
outres,epel,all,
outres,eppl,all,
outres,cont,all,
outres,v,all,
outres,a,all,
outres,misc,all,_elmisc
solve
/com,****************************************************
/com,*************** FINISHED SOLVE FOR LS 21 *************
/com,****************************************************
/com,******************* SOLVE FOR LS 22 OF 50 ****************
/nopr
/gopr
autots,on                   ! User turned on automatic time stepping
deltim,1,1,1,OFF
time,22.
timint,on                  ! Turn on time integration effects
outres,erase
outres,all,none
outres,nsol,all,
outres,rsol,all
outres,eangl,all
outres,etmp,all
outres,veng,all
outres,strs,all,
outres,epel,all,
outres,eppl,all,
outres,cont,all,
outres,v,all,
outres,a,all,
outres,misc,all,_elmisc
solve
/com,****************************************************
/com,*************** FINISHED SOLVE FOR LS 22 *************
/com,****************************************************
/com,******************* SOLVE FOR LS 23 OF 50 ****************
/nopr
/gopr
autots,on                   ! User turned on automatic time stepping
deltim,1,1,1,OFF
time,23.
timint,on                  ! Turn on time integration effects
outres,erase
outres,all,none
outres,nsol,all,
outres,rsol,all
outres,eangl,all
outres,etmp,all
outres,veng,all
outres,strs,all,
outres,epel,all,
outres,eppl,all,
outres,cont,all,
outres,v,all,
outres,a,all,
outres,misc,all,_elmisc
solve
/com,****************************************************
/com,*************** FINISHED SOLVE FOR LS 23 *************
/com,****************************************************
/com,******************* SOLVE FOR LS 24 OF 50 ****************
/nopr
/gopr
autots,on                   ! User turned on automatic time stepping
deltim,1,1,1,OFF
time,24.
timint,on                  ! Turn on time integration effects
outres,erase
outres,all,none
outres,nsol,all,
outres,rsol,all
outres,eangl,all
outres,etmp,all
outres,veng,all
outres,strs,all,
outres,epel,all,
outres,eppl,all,
outres,cont,all,
outres,v,all,
outres,a,all,
outres,misc,all,_elmisc
solve
/com,****************************************************
/com,*************** FINISHED SOLVE FOR LS 24 *************
/com,****************************************************
/com,******************* SOLVE FOR LS 25 OF 50 ****************
/nopr
/gopr
autots,on                   ! User turned on automatic time stepping
deltim,1,1,1,OFF
time,25.
timint,on                  ! Turn on time integration effects
outres,erase
outres,all,none
outres,nsol,all,
outres,rsol,all
outres,eangl,all
outres,etmp,all
outres,veng,all
outres,strs,all,
outres,epel,all,
outres,eppl,all,
outres,cont,all,
outres,v,all,
outres,a,all,
outres,misc,all,_elmisc
solve
/com,****************************************************
/com,*************** FINISHED SOLVE FOR LS 25 *************
/com,****************************************************
/com,******************* SOLVE FOR LS 26 OF 50 ****************
/nopr
/gopr
autots,on                   ! User turned on automatic time stepping
deltim,1,1,1,OFF
time,26.
timint,on                  ! Turn on time integration effects
outres,erase
outres,all,none
outres,nsol,all,
outres,rsol,all
outres,eangl,all
outres,etmp,all
outres,veng,all
outres,strs,all,
outres,epel,all,
outres,eppl,all,
outres,cont,all,
outres,v,all,
outres,a,all,
outres,misc,all,_elmisc
solve
/com,****************************************************
/com,*************** FINISHED SOLVE FOR LS 26 *************
/com,****************************************************
/com,******************* SOLVE FOR LS 27 OF 50 ****************
/nopr
/gopr
autots,on                   ! User turned on automatic time stepping
deltim,1,1,1,OFF
time,27.
timint,on                  ! Turn on time integration effects
outres,erase
outres,all,none
outres,nsol,all,
outres,rsol,all
outres,eangl,all
outres,etmp,all
outres,veng,all
outres,strs,all,
outres,epel,all,
outres,eppl,all,
outres,cont,all,
outres,v,all,
outres,a,all,
outres,misc,all,_elmisc
solve
/com,****************************************************
/com,*************** FINISHED SOLVE FOR LS 27 *************
/com,****************************************************
/com,******************* SOLVE FOR LS 28 OF 50 ****************
/nopr
/gopr
autots,on                   ! User turned on automatic time stepping
deltim,1,1,1,OFF
time,28.
timint,on                  ! Turn on time integration effects
outres,erase
outres,all,none
outres,nsol,all,
outres,rsol,all
outres,eangl,all
outres,etmp,all
outres,veng,all
outres,strs,all,
outres,epel,all,
outres,eppl,all,
outres,cont,all,
outres,v,all,
outres,a,all,
outres,misc,all,_elmisc
solve
/com,****************************************************
/com,*************** FINISHED SOLVE FOR LS 28 *************
/com,****************************************************
/com,******************* SOLVE FOR LS 29 OF 50 ****************
/nopr
/gopr
autots,on                   ! User turned on automatic time stepping
deltim,1,1,1,OFF
time,29.
timint,on                  ! Turn on time integration effects
outres,erase
outres,all,none
outres,nsol,all,
outres,rsol,all
outres,eangl,all
outres,etmp,all
outres,veng,all
outres,strs,all,
outres,epel,all,
outres,eppl,all,
outres,cont,all,
outres,v,all,
outres,a,all,
outres,misc,all,_elmisc
solve
/com,****************************************************
/com,*************** FINISHED SOLVE FOR LS 29 *************
/com,****************************************************
/com,******************* SOLVE FOR LS 30 OF 50 ****************
/nopr
/gopr
autots,on                   ! User turned on automatic time stepping
deltim,1,1,1,OFF
time,30.
timint,on                  ! Turn on time integration effects
outres,erase
outres,all,none
outres,nsol,all,
outres,rsol,all
outres,eangl,all
outres,etmp,all
outres,veng,all
outres,strs,all,
outres,epel,all,
outres,eppl,all,
outres,cont,all,
outres,v,all,
outres,a,all,
outres,misc,all,_elmisc
solve
/com,****************************************************
/com,*************** FINISHED SOLVE FOR LS 30 *************
/com,****************************************************
/com,******************* SOLVE FOR LS 31 OF 50 ****************
/nopr
/gopr
autots,on                   ! User turned on automatic time stepping
deltim,1,1,1,OFF
time,31.
timint,on                  ! Turn on time integration effects
outres,erase
outres,all,none
outres,nsol,all,
outres,rsol,all
outres,eangl,all
outres,etmp,all
outres,veng,all
outres,strs,all,
outres,epel,all,
outres,eppl,all,
outres,cont,all,
outres,v,all,
outres,a,all,
outres,misc,all,_elmisc
solve
/com,****************************************************
/com,*************** FINISHED SOLVE FOR LS 31 *************
/com,****************************************************
/com,******************* SOLVE FOR LS 32 OF 50 ****************
/nopr
/gopr
autots,on                   ! User turned on automatic time stepping
deltim,1,1,1,OFF
time,32.
timint,on                  ! Turn on time integration effects
outres,erase
outres,all,none
outres,nsol,all,
outres,rsol,all
outres,eangl,all
outres,etmp,all
outres,veng,all
outres,strs,all,
outres,epel,all,
outres,eppl,all,
outres,cont,all,
outres,v,all,
outres,a,all,
outres,misc,all,_elmisc
solve
/com,****************************************************
/com,*************** FINISHED SOLVE FOR LS 32 *************
/com,****************************************************
/com,******************* SOLVE FOR LS 33 OF 50 ****************
/nopr
/gopr
autots,on                   ! User turned on automatic time stepping
deltim,1,1,1,OFF
time,33.
timint,on                  ! Turn on time integration effects
outres,erase
outres,all,none
outres,nsol,all,
outres,rsol,all
outres,eangl,all
outres,etmp,all
outres,veng,all
outres,strs,all,
outres,epel,all,
outres,eppl,all,
outres,cont,all,
outres,v,all,
outres,a,all,
outres,misc,all,_elmisc
solve
/com,****************************************************
/com,*************** FINISHED SOLVE FOR LS 33 *************
/com,****************************************************
/com,******************* SOLVE FOR LS 34 OF 50 ****************
/nopr
/gopr
autots,on                   ! User turned on automatic time stepping
deltim,1,1,1,OFF
time,34.
timint,on                  ! Turn on time integration effects
outres,erase
outres,all,none
outres,nsol,all,
outres,rsol,all
outres,eangl,all
outres,etmp,all
outres,veng,all
outres,strs,all,
outres,epel,all,
outres,eppl,all,
outres,cont,all,
outres,v,all,
outres,a,all,
outres,misc,all,_elmisc
solve
/com,****************************************************
/com,*************** FINISHED SOLVE FOR LS 34 *************
/com,****************************************************
/com,******************* SOLVE FOR LS 35 OF 50 ****************
/nopr
/gopr
autots,on                   ! User turned on automatic time stepping
deltim,1,1,1,OFF
time,35.
timint,on                  ! Turn on time integration effects
outres,erase
outres,all,none
outres,nsol,all,
outres,rsol,all
outres,eangl,all
outres,etmp,all
outres,veng,all
outres,strs,all,
outres,epel,all,
outres,eppl,all,
outres,cont,all,
outres,v,all,
outres,a,all,
outres,misc,all,_elmisc
solve
/com,****************************************************
/com,*************** FINISHED SOLVE FOR LS 35 *************
/com,****************************************************
/com,******************* SOLVE FOR LS 36 OF 50 ****************
/nopr
/gopr
autots,on                   ! User turned on automatic time stepping
deltim,1,1,1,OFF
time,36.
timint,on                  ! Turn on time integration effects
outres,erase
outres,all,none
outres,nsol,all,
outres,rsol,all
outres,eangl,all
outres,etmp,all
outres,veng,all
outres,strs,all,
outres,epel,all,
outres,eppl,all,
outres,cont,all,
outres,v,all,
outres,a,all,
outres,misc,all,_elmisc
solve
/com,****************************************************
/com,*************** FINISHED SOLVE FOR LS 36 *************
/com,****************************************************
/com,******************* SOLVE FOR LS 37 OF 50 ****************
/nopr
/gopr
autots,on                   ! User turned on automatic time stepping
deltim,1,1,1,OFF
time,37.
timint,on                  ! Turn on time integration effects
outres,erase
outres,all,none
outres,nsol,all,
outres,rsol,all
outres,eangl,all
outres,etmp,all
outres,veng,all
outres,strs,all,
outres,epel,all,
outres,eppl,all,
outres,cont,all,
outres,v,all,
outres,a,all,
outres,misc,all,_elmisc
solve
/com,****************************************************
/com,*************** FINISHED SOLVE FOR LS 37 *************
/com,****************************************************
/com,******************* SOLVE FOR LS 38 OF 50 ****************
/nopr
/gopr
autots,on                   ! User turned on automatic time stepping
deltim,1,1,1,OFF
time,38.
timint,on                  ! Turn on time integration effects
outres,erase
outres,all,none
outres,nsol,all,
outres,rsol,all
outres,eangl,all
outres,etmp,all
outres,veng,all
outres,strs,all,
outres,epel,all,
outres,eppl,all,
outres,cont,all,
outres,v,all,
outres,a,all,
outres,misc,all,_elmisc
solve
/com,****************************************************
/com,*************** FINISHED SOLVE FOR LS 38 *************
/com,****************************************************
/com,******************* SOLVE FOR LS 39 OF 50 ****************
/nopr
/gopr
autots,on                   ! User turned on automatic time stepping
deltim,1,1,1,OFF
time,39.
timint,on                  ! Turn on time integration effects
outres,erase
outres,all,none
outres,nsol,all,
outres,rsol,all
outres,eangl,all
outres,etmp,all
outres,veng,all
outres,strs,all,
outres,epel,all,
outres,eppl,all,
outres,cont,all,
outres,v,all,
outres,a,all,
outres,misc,all,_elmisc
solve
/com,****************************************************
/com,*************** FINISHED SOLVE FOR LS 39 *************
/com,****************************************************
/com,******************* SOLVE FOR LS 40 OF 50 ****************
/nopr
/gopr
autots,on                   ! User turned on automatic time stepping
deltim,1,1,1,OFF
time,40.
timint,on                  ! Turn on time integration effects
outres,erase
outres,all,none
outres,nsol,all,
outres,rsol,all
outres,eangl,all
outres,etmp,all
outres,veng,all
outres,strs,all,
outres,epel,all,
outres,eppl,all,
outres,cont,all,
outres,v,all,
outres,a,all,
outres,misc,all,_elmisc
solve
/com,****************************************************
/com,*************** FINISHED SOLVE FOR LS 40 *************
/com,****************************************************
/com,******************* SOLVE FOR LS 41 OF 50 ****************
/nopr
/gopr
autots,on                   ! User turned on automatic time stepping
deltim,1,1,1,OFF
time,41.
timint,on                  ! Turn on time integration effects
outres,erase
outres,all,none
outres,nsol,all,
outres,rsol,all
outres,eangl,all
outres,etmp,all
outres,veng,all
outres,strs,all,
outres,epel,all,
outres,eppl,all,
outres,cont,all,
outres,v,all,
outres,a,all,
outres,misc,all,_elmisc
solve
/com,****************************************************
/com,*************** FINISHED SOLVE FOR LS 41 *************
/com,****************************************************
/com,******************* SOLVE FOR LS 42 OF 50 ****************
/nopr
/gopr
autots,on                   ! User turned on automatic time stepping
deltim,1,1,1,OFF
time,42.
timint,on                  ! Turn on time integration effects
outres,erase
outres,all,none
outres,nsol,all,
outres,rsol,all
outres,eangl,all
outres,etmp,all
outres,veng,all
outres,strs,all,
outres,epel,all,
outres,eppl,all,
outres,cont,all,
outres,v,all,
outres,a,all,
outres,misc,all,_elmisc
solve
/com,****************************************************
/com,*************** FINISHED SOLVE FOR LS 42 *************
/com,****************************************************
/com,******************* SOLVE FOR LS 43 OF 50 ****************
/nopr
/gopr
autots,on                   ! User turned on automatic time stepping
deltim,1,1,1,OFF
time,43.
timint,on                  ! Turn on time integration effects
outres,erase
outres,all,none
outres,nsol,all,
outres,rsol,all
outres,eangl,all
outres,etmp,all
outres,veng,all
outres,strs,all,
outres,epel,all,
outres,eppl,all,
outres,cont,all,
outres,v,all,
outres,a,all,
outres,misc,all,_elmisc
solve
/com,****************************************************
/com,*************** FINISHED SOLVE FOR LS 43 *************
/com,****************************************************
/com,******************* SOLVE FOR LS 44 OF 50 ****************
/nopr
/gopr
autots,on                   ! User turned on automatic time stepping
deltim,1,1,1,OFF
time,44.
timint,on                  ! Turn on time integration effects
outres,erase
outres,all,none
outres,nsol,all,
outres,rsol,all
outres,eangl,all
outres,etmp,all
outres,veng,all
outres,strs,all,
outres,epel,all,
outres,eppl,all,
outres,cont,all,
outres,v,all,
outres,a,all,
outres,misc,all,_elmisc
solve
/com,****************************************************
/com,*************** FINISHED SOLVE FOR LS 44 *************
/com,****************************************************
/com,******************* SOLVE FOR LS 45 OF 50 ****************
/nopr
/gopr
autots,on                   ! User turned on automatic time stepping
deltim,1,1,1,OFF
time,45.
timint,on                  ! Turn on time integration effects
outres,erase
outres,all,none
outres,nsol,all,
outres,rsol,all
outres,eangl,all
outres,etmp,all
outres,veng,all
outres,strs,all,
outres,epel,all,
outres,eppl,all,
outres,cont,all,
outres,v,all,
outres,a,all,
outres,misc,all,_elmisc
solve
/com,****************************************************
/com,*************** FINISHED SOLVE FOR LS 45 *************
/com,****************************************************
/com,******************* SOLVE FOR LS 46 OF 50 ****************
/nopr
/gopr
autots,on                   ! User turned on automatic time stepping
deltim,1,1,1,OFF
time,46.
timint,on                  ! Turn on time integration effects
outres,erase
outres,all,none
outres,nsol,all,
outres,rsol,all
outres,eangl,all
outres,etmp,all
outres,veng,all
outres,strs,all,
outres,epel,all,
outres,eppl,all,
outres,cont,all,
outres,v,all,
outres,a,all,
outres,misc,all,_elmisc
solve
/com,****************************************************
/com,*************** FINISHED SOLVE FOR LS 46 *************
/com,****************************************************
/com,******************* SOLVE FOR LS 47 OF 50 ****************
/nopr
/gopr
autots,on                   ! User turned on automatic time stepping
deltim,1,1,1,OFF
time,47.
timint,on                  ! Turn on time integration effects
outres,erase
outres,all,none
outres,nsol,all,
outres,rsol,all
outres,eangl,all
outres,etmp,all
outres,veng,all
outres,strs,all,
outres,epel,all,
outres,eppl,all,
outres,cont,all,
outres,v,all,
outres,a,all,
outres,misc,all,_elmisc
solve
/com,****************************************************
/com,*************** FINISHED SOLVE FOR LS 47 *************
/com,****************************************************
/com,******************* SOLVE FOR LS 48 OF 50 ****************
/nopr
/gopr
autots,on                   ! User turned on automatic time stepping
deltim,1,1,1,OFF
time,48.
timint,on                  ! Turn on time integration effects
outres,erase
outres,all,none
outres,nsol,all,
outres,rsol,all
outres,eangl,all
outres,etmp,all
outres,veng,all
outres,strs,all,
outres,epel,all,
outres,eppl,all,
outres,cont,all,
outres,v,all,
outres,a,all,
outres,misc,all,_elmisc
solve
/com,****************************************************
/com,*************** FINISHED SOLVE FOR LS 48 *************
/com,****************************************************
/com,******************* SOLVE FOR LS 49 OF 50 ****************
/nopr
/gopr
autots,on                   ! User turned on automatic time stepping
deltim,1,1,1,OFF
time,49.
timint,on                  ! Turn on time integration effects
outres,erase
outres,all,none
outres,nsol,all,
outres,rsol,all
outres,eangl,all
outres,etmp,all
outres,veng,all
outres,strs,all,
outres,epel,all,
outres,eppl,all,
outres,cont,all,
outres,v,all,
outres,a,all,
outres,misc,all,_elmisc
solve
/com,****************************************************
/com,*************** FINISHED SOLVE FOR LS 49 *************
/com,****************************************************
/com,******************* SOLVE FOR LS 50 OF 50 ****************
/nopr
/gopr
autots,on                   ! User turned on automatic time stepping
deltim,1,1,1,OFF
time,50.
timint,on                  ! Turn on time integration effects
outres,erase
outres,all,none
outres,nsol,all,
outres,rsol,all
outres,eangl,all
outres,etmp,all
outres,veng,all
outres,strs,all,
outres,epel,all,
outres,eppl,all,
outres,cont,all,
outres,v,all,
outres,a,all,
outres,misc,all,_elmisc
solve
/com,****************************************************
/com,*************** FINISHED SOLVE FOR LS 50 *************
*get,_wallasol,active,,time,wall
/nopr
*get,_numnode,node,0,count
*get,_numelem,elem,0,count
*get, _MAXELEMNUM, elem, 0, NUM, MAX
*get, _MAXNODENUM, node, 0, NUM, MAX,,,INTERNAL
*get, _MAXELEMTYPE, etyp, 0, NUM, MAX
*get, _MAXREALCONST, real, 0, NUM, MAX
/gopr
/post1
xmlo,ENCODING,ISO-8859-1
xmlo,parm
/xml,parm,xml
fini
/gopr
*get,_walldone,active,,time,wall
_preptime=(_wallbsol-_wallstrt)*3600
_solvtime=(_wallasol-_wallbsol)*3600
_posttime=(_walldone-_wallasol)*3600
_totaltim=(_walldone-_wallstrt)*3600
*get,_dlbratio,active,0,solu,dlbr
*get,_combtime,active,0,solu,comb
*get,_ssmode,active,0,solu,ssmm
*get,_ndofs,active,0,solu,ndof
*get,_sol_end_time,active,0,set,time
*if,_sol_end_time,eq,50.000000,then
/fclean				!clean distributed files
*endif
/com,--- Total number of nodes = %_numnode%
/com,--- Total number of elements = %_numelem%
/com,--- Element load balance ratio = %_dlbratio%
/com,--- Time to combine distributed files = %_combtime%
/com,--- Sparse memory mode = %_ssmode%
/com,--- Number of DOF = %_ndofs%
/wb,file,end               ! done with WB generated input
